<?xml version="1.0" encoding="UTF-8"?>

<!-- generated on 2024-05-13 12:09:44 by Eclipse SUMO polyconvert Version 1.20.0
<configuration xmlns:xsi="http://www.w3.org/2001/XMLSchema-instance" xsi:noNamespaceSchemaLocation="http://sumo.dlr.de/xsd/polyconvertConfiguration.xsd">

    <input>
        <net-file value="map.net.xml"/>
        <osm-files value="map.osm"/>
    </input>

    <output>
        <output-file value="map.poly.xml"/>
    </output>

</configuration>
-->

<additional xmlns:xsi="http://www.w3.org/2001/XMLSchema-instance" xsi:noNamespaceSchemaLocation="http://sumo.dlr.de/xsd/additional_file.xsd">
    <location netOffset="-677222.68,-4448824.08" convBoundary="-1230.59,-7423.53,7656.57,13676.45" origBoundary="29.070509,40.103140,29.172039,40.294450" projParameter="+proj=utm +zone=35 +ellps=WGS84 +datum=WGS84 +units=m +no_defs"/>

    <poly id="1066950852" type="parking" color="184,184,179" fill="1" layer="-1.00" shape="4665.493006,779.225646 4661.014008,786.559612 4685.452697,801.264905 4694.842626,786.351934 4693.873844,777.753932 4665.493006,779.225646"/>
    <poly id="1080716146" type="building" color="255,230,230" fill="1" layer="-1.00" shape="4019.990265,2076.383988 4020.091539,2068.966895 4020.192814,2061.549802 3979.658869,2060.999554 3979.456134,2075.844839 4019.990265,2076.383988"/>
    <poly id="1080716147" type="parking" color="184,184,179" fill="1" layer="-1.00" shape="4056.161467,1858.653572 4018.539178,1857.062334 4015.696155,1856.971920 4013.091514,1856.887226 3954.746222,1854.832555 3966.529955,1832.701090 4050.614573,1816.458017 4053.450082,1829.998922 4057.855884,1830.993197 4056.161467,1858.653572"/>
    <poly id="1080716150" type="landuse" color="194,194,130" fill="1" layer="-3.00" shape="4056.161467,1858.653572 4018.539178,1857.062334 4017.599009,1879.209484 4055.220921,1880.811822 4056.161467,1858.653572"/>
    <poly id="1080716151" type="landuse" color="194,194,130" fill="1" layer="-3.00" shape="4080.025586,1908.552700 4067.264256,1908.224261 4066.784498,1920.052887 4068.908106,1919.948345 4073.258860,1918.264508 4076.856467,1915.307500 4079.336167,1911.368459 4080.025586,1908.552700"/>
    <poly id="1080716152" type="landuse" color="194,194,130" fill="1" layer="-3.00" shape="4067.631538,1903.568105 4067.965510,1891.424983 4070.604450,1891.854839 4074.968402,1894.236507 4078.278489,1897.936843 4080.083776,1902.223065 4080.207441,1903.814344 4067.631538,1903.568105"/>
    <poly id="1080716153" type="landuse" color="194,194,130" fill="1" layer="-3.00" shape="4062.967965,1903.023026 4051.456793,1902.780147 4053.245835,1898.158103 4056.487755,1894.403950 4060.806083,1891.941832 4063.330114,1891.480362 4062.967965,1903.023026"/>
    <poly id="1080716154" type="landuse" color="194,194,130" fill="1" layer="-3.00" shape="4063.033804,1908.089430 4051.312464,1907.730437 4052.843188,1912.454348 4055.866735,1916.381048 4059.748856,1918.962180 4062.820903,1919.802281 4063.033804,1908.089430"/>
    <poly id="1080716155" type="landuse" color="194,194,130" fill="1" layer="-3.00" shape="4008.351189,1900.379855 4002.802317,1907.266419 4003.789598,1908.722912 4004.328846,1910.390800 4004.401712,1911.969751 4004.083486,1913.517107 4003.376298,1914.944062 4002.115994,1916.346642 4000.491479,1917.307311 3998.948385,1917.714581 3997.355016,1917.731897 3995.299532,1917.127240 3987.205823,1929.606270 4005.922349,1929.899710 4007.467334,1927.993034 4008.351189,1900.379855"/>
    <poly id="1080716156" type="landuse" color="194,194,130" fill="1" layer="-3.00" shape="3997.401640,1914.367574 3996.530599,1914.102326 3995.784873,1913.584621 3995.257311,1912.850008 3994.988352,1911.988312 3995.010185,1911.078057 3995.320149,1910.230248 3995.890838,1909.521977 3996.652015,1909.040417 3997.534771,1908.817235 3998.435880,1908.894385 3999.270470,1909.258723 3999.945958,1909.863600 4000.402748,1910.707586 4000.550653,1911.644128 4000.375042,1912.572909 3999.886826,1913.394228 3999.156508,1914.009813 3998.305410,1914.333717 3997.401640,1914.367574"/>
    <poly id="1080716157" type="landuse" color="194,194,130" fill="1" layer="-3.00" shape="3993.393583,1915.615392 3987.788316,1923.433606 3987.618244,1912.411319 3991.834594,1912.423592 3992.453123,1914.337736 3993.393583,1915.615392"/>
    <poly id="1080716158" type="landuse" color="194,194,130" fill="1" layer="-3.00" shape="3992.114263,1909.642427 3988.097185,1909.490541 3988.273608,1892.900819 4007.721854,1893.589449 4007.628176,1895.008906 3999.348500,1905.295372 3997.323065,1905.213468 3995.384617,1905.766754 3993.721786,1906.904218 3992.499258,1908.507634 3992.114263,1909.642427"/>
    <poly id="1080716159" type="landuse" color="194,194,130" fill="1" layer="-3.00" shape="4085.465707,1823.136584 4077.727530,1824.339277 4074.364269,1827.468515 4071.262361,1827.516261 4070.548653,1851.934689 4074.122941,1855.985681 4076.576569,1861.653629 4076.613705,1865.430924 4076.366013,1883.562828 4082.999715,1883.655373 4085.465707,1823.136584"/>
    <poly id="1080718764" type="building" color="255,230,230" fill="1" layer="-1.00" shape="4259.213964,2274.423958 4258.354666,2269.771656 4253.520717,2270.655168 4254.371504,2275.307264 4259.213964,2274.423958"/>
    <poly id="1080719699" type="clinic" color="237,199,199" fill="1" layer="-2.00" shape="1946.767864,1759.021760 1929.836358,1757.809466 1930.585823,1747.397869 1947.525866,1748.610366 1946.767864,1759.021760"/>
    <poly id="1080719699#1" type="building" color="255,230,230" fill="1" layer="-1.00" shape="1946.767864,1759.021760 1929.836358,1757.809466 1930.585823,1747.397869 1947.525866,1748.610366 1946.767864,1759.021760"/>
    <poly id="1108932773" type="building" color="255,230,230" fill="1" layer="-1.00" shape="2064.685654,3716.914354 2069.804210,3716.902608 2069.679790,3711.024084 2064.694514,3711.161171 2064.685654,3716.914354"/>
    <poly id="1108932774" type="tourism" color="207,245,201" fill="1" layer="-2.00" shape="1871.096064,3770.687085 1886.476863,3771.740547 1876.950026,3699.097433 1866.947899,3697.471832 1871.096064,3770.687085"/>
    <poly id="1108932776" type="building" color="255,230,230" fill="1" layer="-1.00" shape="2065.410360,3722.618314 2069.687859,3722.519956 2069.604909,3717.764217 2065.431918,3717.765094 2065.410360,3722.618314"/>
    <poly id="1108937886" type="building" color="255,230,230" fill="1" layer="-1.00" shape="1916.600681,3837.341843 1902.295180,3732.452961 1951.750813,3727.350936 1948.031051,3684.923060 1986.979704,3680.105071 1984.691285,3754.278379 1998.724873,3782.312155 2005.182827,3797.626409 2018.564030,3832.686545 2021.327750,3843.259315 1916.600681,3837.341843"/>
    <poly id="1108937886#1" type="man_made" color="255,230,230" fill="1" layer="-1.00" shape="1916.600681,3837.341843 1902.295180,3732.452961 1951.750813,3727.350936 1948.031051,3684.923060 1986.979704,3680.105071 1984.691285,3754.278379 1998.724873,3782.312155 2005.182827,3797.626409 2018.564030,3832.686545 2021.327750,3843.259315 1916.600681,3837.341843"/>
    <poly id="1108937887" type="building" color="255,230,230" fill="1" layer="-1.00" shape="1961.317511,3548.500959 1958.041684,3540.837197 1954.552941,3541.787358 1947.927429,3529.212607 1984.315493,3513.182450 1994.208941,3534.109455 1961.317511,3548.500959"/>
    <poly id="1108937887#1" type="man_made" color="255,230,230" fill="1" layer="-1.00" shape="1961.317511,3548.500959 1958.041684,3540.837197 1954.552941,3541.787358 1947.927429,3529.212607 1984.315493,3513.182450 1994.208941,3534.109455 1961.317511,3548.500959"/>
    <poly id="1108937888" type="building" color="255,230,230" fill="1" layer="-1.00" shape="1886.764887,3582.596495 1882.623948,3581.243193 1885.192377,3576.006113 1893.621811,3570.697026 1892.431194,3562.727336 1890.907659,3554.072228 1895.840576,3550.401778 1902.801626,3548.834222 1913.368354,3570.465713 1886.764887,3582.596495"/>
    <poly id="1108937888#1" type="shop" color="237,199,255" fill="1" layer="-1.00" shape="1886.764887,3582.596495 1882.623948,3581.243193 1885.192377,3576.006113 1893.621811,3570.697026 1892.431194,3562.727336 1890.907659,3554.072228 1895.840576,3550.401778 1902.801626,3548.834222 1913.368354,3570.465713 1886.764887,3582.596495"/>
    <poly id="1108937889" type="tourism" color="207,245,201" fill="1" layer="-2.00" shape="1841.606666,3603.606045 1848.825632,3517.898557 1851.292265,3516.235480 1881.856217,3585.245688 1841.606666,3603.606045"/>
    <poly id="1108937890" type="amenity" color="237,199,199" fill="1" layer="-1.00" shape="1844.642756,3592.293453 1846.291461,3580.947961 1858.370844,3582.611682 1855.667384,3594.620787 1844.642756,3592.293453"/>
    <poly id="1108937890#1" type="building" color="255,230,230" fill="1" layer="-1.00" shape="1844.642756,3592.293453 1846.291461,3580.947961 1858.370844,3582.611682 1855.667384,3594.620787 1844.642756,3592.293453"/>
    <poly id="1108937891" type="clinic" color="237,199,199" fill="1" layer="-2.00" shape="1850.489541,3322.389685 1849.303801,3306.667502 1862.491577,3305.425261 1862.439555,3321.984435 1850.489541,3322.389685"/>
    <poly id="1108937891#1" type="building" color="255,230,230" fill="1" layer="-1.00" shape="1850.489541,3322.389685 1849.303801,3306.667502 1862.491577,3305.425261 1862.439555,3321.984435 1850.489541,3322.389685"/>
    <poly id="1108937892" type="building" color="255,230,230" fill="1" layer="-1.00" shape="2013.641347,3614.929323 2014.480467,3592.135603 2026.852154,3591.529614 2025.991653,3615.222488 2013.641347,3614.929323"/>
    <poly id="1108942973" type="landuse" color="194,194,130" fill="1" layer="-3.00" shape="2029.970659,3775.501152 2025.541914,3772.286073 2020.554445,3763.548693 2014.857510,3752.051064 2012.120055,3734.270523 2013.360605,3720.038668 2013.662083,3713.437199 2050.731572,3713.872946 2063.682606,3714.324835 2064.818743,3723.503928 2062.283808,3741.314802 2060.548172,3776.393729 2056.919949,3770.309835 2052.550170,3770.350472 2052.592942,3775.005295 2047.782604,3774.591197 2044.520084,3772.114639 2040.001923,3772.307258 2038.554710,3775.871547 2029.970659,3775.501152"/>
    <poly id="1108942974" type="landuse" color="194,194,130" fill="1" layer="-3.00" shape="1891.283609,3725.994081 1879.692580,3646.304645 1937.477636,3617.875599 1949.177455,3721.669766 1891.283609,3725.994081"/>
    <poly id="1108944438" type="tourism" color="207,245,201" fill="1" layer="-2.00" shape="1855.971292,3387.161911 1852.458578,3357.156586 1853.947803,3356.847587 1866.253150,3382.396524 1855.971292,3387.161911"/>
    <poly id="1108953930" type="amenity" color="237,199,199" fill="1" layer="-1.00" shape="1839.928942,3688.001048 1839.484327,3673.351586 1864.175818,3661.386342 1869.869929,3664.398085 1873.364483,3683.307200 1862.350602,3683.045975 1860.882833,3689.275466 1839.928942,3688.001048"/>
    <poly id="1108953930#1" type="building" color="255,230,230" fill="1" layer="-1.00" shape="1839.928942,3688.001048 1839.484327,3673.351586 1864.175818,3661.386342 1869.869929,3664.398085 1873.364483,3683.307200 1862.350602,3683.045975 1860.882833,3689.275466 1839.928942,3688.001048"/>
    <poly id="1108953935" type="building" color="255,230,230" fill="1" layer="-1.00" shape="2164.564328,3608.661380 2146.030068,3558.217640 2191.423748,3542.046961 2211.652644,3593.919464 2164.564328,3608.661380"/>
    <poly id="1154210866" type="building" color="255,230,230" fill="1" layer="-1.00" shape="6942.659901,3003.396628 6951.367306,3004.342042 6954.106389,2979.339575 6926.522912,2976.345552 6925.645957,2984.365880 6944.513468,2986.414279 6942.659901,3003.396628"/>
    <poly id="1155791276" type="landuse" color="194,194,130" fill="1" layer="-3.00" shape="3933.955257,1963.782979 3906.695245,1963.118274 3916.116374,1919.071412 3938.192255,1878.027000 3949.598371,1878.033936 3949.207599,1894.685157 3944.857418,1894.569735 3944.728851,1899.931362 3946.218729,1899.967088 3945.694938,1916.481834 3945.154643,1933.684823 3934.373827,1933.537383 3933.955257,1963.782979"/>
    <poly id="1155791277" type="building" color="255,230,230" fill="1" layer="-1.00" shape="3944.727251,1963.941316 3933.955257,1963.782979 3934.373827,1933.537383 3945.154643,1933.684823 3944.727251,1963.941316"/>
    <poly id="1155791278" type="landuse" color="194,194,130" fill="1" layer="-3.00" shape="3979.655595,2149.211804 3981.327149,2079.521727 4028.108765,2079.910880 4028.676892,2147.833146 3979.655595,2149.211804"/>
    <poly id="1155887974" type="building" color="255,230,230" fill="1" layer="-1.00" shape="1841.748669,1778.945774 1817.542333,1769.830931 1821.294959,1759.934773 1845.501587,1769.038526 1841.748669,1778.945774"/>
    <poly id="1155887975" type="building" color="255,230,230" fill="1" layer="-1.00" shape="1840.292239,1801.580403 1817.630288,1789.125666 1822.764938,1779.862029 1845.418397,1792.316579 1840.292239,1801.580403"/>
    <poly id="1155903098" type="building" color="255,230,230" fill="1" layer="-1.00" shape="1928.214037,1749.707398 1928.805572,1745.956189 1924.018856,1745.209598 1923.435573,1748.972110 1928.214037,1749.707398"/>
    <poly id="1155903099" type="forest" color="140,196,107" fill="1" layer="-4.00" shape="1910.859750,1661.051716 1897.741796,1656.353504 1893.881706,1649.575651 1876.154449,1646.345389 1855.577980,1707.978466 1865.264628,1715.838487 1869.287986,1724.352869 1870.660377,1735.814382 1896.398800,1745.343347 1972.153787,1705.466596 1971.989294,1657.447606 1929.519410,1643.278834 1925.873314,1652.266709 1945.334576,1659.247908 1925.469398,1714.211347 1895.534402,1703.472112 1910.859750,1661.051716"/>
    <poly id="1156446723" type="building" color="255,230,230" fill="1" layer="-1.00" shape="2338.419665,3379.380906 2326.522982,3351.752719 2309.245844,3359.139036 2321.151350,3386.756296 2338.419665,3379.380906"/>
    <poly id="1156446723#1" type="shop" color="237,199,255" fill="1" layer="-1.00" shape="2338.419665,3379.380906 2326.522982,3351.752719 2309.245844,3359.139036 2321.151350,3386.756296 2338.419665,3379.380906"/>
    <poly id="1156446724" type="building" color="255,230,230" fill="1" layer="-1.00" shape="2354.930524,3372.342964 2343.179645,3344.673788 2326.522982,3351.752719 2338.419665,3379.380906 2354.930524,3372.342964"/>
    <poly id="1156446724#1" type="shop" color="237,199,255" fill="1" layer="-1.00" shape="2354.930524,3372.342964 2343.179645,3344.673788 2326.522982,3351.752719 2338.419665,3379.380906 2354.930524,3372.342964"/>
    <poly id="1156446725" type="building" color="255,230,230" fill="1" layer="-1.00" shape="2379.621220,3361.923154 2367.878394,3334.276342 2343.179645,3344.673788 2354.930524,3372.342964 2379.621220,3361.923154"/>
    <poly id="1156446725#1" type="shop" color="237,199,255" fill="1" layer="-1.00" shape="2379.621220,3361.923154 2367.878394,3334.276342 2343.179645,3344.673788 2354.930524,3372.342964 2379.621220,3361.923154"/>
    <poly id="1156446726" type="natural" color="140,196,107" fill="1" layer="-4.00" shape="2417.795054,4032.670106 2355.937138,3752.946855 2235.164569,3782.840997 2287.412622,4048.573014 2348.020053,4050.736224 2417.795054,4032.670106"/>
    <poly id="1156446727" type="building" color="255,230,230" fill="1" layer="-1.00" shape="2367.277494,2821.220892 2337.999867,2819.225289 2339.498429,2797.391344 2368.775877,2799.398051 2367.277494,2821.220892"/>
    <poly id="1159063397" type="forest" color="140,196,107" fill="1" layer="-3.00" shape="7078.415738,2253.374962 7060.462686,2151.604809 6985.504094,2087.853367 7254.092683,2073.625265 7431.477951,2090.954408 7480.090838,2218.589016 7355.735340,2237.197871 7078.415738,2253.374962"/>
    <poly id="1159063398" type="forest" color="140,196,107" fill="1" layer="-3.00" shape="6985.226581,2063.599315 6975.190650,1958.123867 7309.486841,1980.598952 7424.649206,2070.261102 7256.533064,2053.225125 7102.124625,2059.164095 6985.226581,2063.599315"/>
    <poly id="1159063399" type="forest" color="140,196,107" fill="1" layer="-3.00" shape="7305.919786,1966.205564 7140.216059,1945.165961 6970.035140,1937.927250 6968.175068,1844.402719 6847.802338,1830.139696 6949.605249,1704.908683 7021.198184,1694.802603 7078.349199,1810.524109 7219.634407,1751.915111 7273.599870,1797.006700 7295.517976,1905.183222 7305.919786,1966.205564"/>
    <poly id="1159063401" type="tourism" color="207,245,201" fill="1" layer="-2.00" shape="6040.350005,753.725262 6072.003883,754.337356 6109.236548,772.234454 6115.432192,1012.745093 6077.708918,1046.740047 5955.290896,1023.867694 5956.637572,955.302186 5926.534632,903.734911 6014.703093,805.107408 6040.350005,753.725262"/>
    <poly id="1159063403" type="forest" color="140,196,107" fill="1" layer="-4.00" shape="5218.298839,907.497537 5242.066604,937.938458 5294.662502,977.994675 5365.214581,1069.289266 5396.372189,1088.613304 5366.972104,1170.384723 5370.241995,1186.669087 5321.171205,1204.965550 5290.499000,1157.796766 5293.694585,1133.071657 5257.774650,1086.576016 5279.326512,1034.115312 5235.592000,954.509512 5210.295446,951.755148 5207.014757,972.957253 5214.917223,1015.110829 5180.641505,1033.876487 5117.897215,1041.547958 5060.227018,1029.593837 5021.238896,995.432104 4968.756315,1010.705204 4962.425149,973.643587 4971.150097,955.938122 5050.591379,982.966921 5131.767695,988.912666 5145.713799,1009.764083 5194.504342,1000.989610 5189.542638,951.709612 5194.263740,908.949975 5218.298839,907.497537"/>
    <poly id="1159443353" type="building" color="255,230,230" fill="1" layer="-1.00" shape="2424.585630,1628.287919 2412.416797,1629.897887 2411.434680,1622.477325 2423.594746,1620.878253 2424.585630,1628.287919"/>
    <poly id="1159443354" type="building" color="255,230,230" fill="1" layer="-1.00" shape="2423.594746,1620.878253 2411.434680,1622.477325 2410.436851,1615.000855 2422.605443,1613.401984 2423.594746,1620.878253"/>
    <poly id="1159451496" type="forest" color="140,196,107" fill="1" layer="-4.00" shape="3599.013299,-43.103398 3668.619770,-66.306757 3681.426554,-94.089913 3838.488764,-122.906786 3851.939604,-145.176295 3805.828883,-178.068825 3721.096026,-211.807761 3731.213316,-237.211678 3841.670642,-228.369404 3961.616098,-199.449878 4104.539653,-221.613914 4274.254355,-295.968409 4541.301543,-298.060977 4552.129935,-339.452149 4350.381312,-426.914210 4363.386872,-444.395365 4598.239081,-441.217130 4601.094545,-479.167963 4922.203709,-634.602413 4914.021601,-675.929073 4851.788016,-686.491259 4858.545660,-732.500697 4947.141053,-782.958902 5194.177210,-744.948338 5352.025925,-800.150897 5605.928499,-743.745305 5844.545318,-641.439701 5889.957786,-612.638790 5944.752804,-555.375846 6250.983632,-419.296448 6306.598401,-366.131512 6362.984802,-207.917473 6486.249563,-56.730504 6423.114748,-19.411329 6393.557339,-26.138296 6299.455474,3.587741 6214.723507,12.049797 6171.238286,62.421156 6112.853415,75.799796 6054.755043,53.120729 6024.395649,125.881109 6044.934323,196.365504 6001.755052,225.063884 5965.175588,219.467894 5948.264626,253.479308 5982.249328,272.263230 6017.889919,251.201482 6055.238889,325.558907 6060.128256,393.786869 6158.738881,376.752036 6257.001750,358.621512 6297.040378,373.666342 6270.786550,403.951507 6245.345433,384.262851 6222.189607,397.496026 6177.412609,448.513448 6064.573793,491.204947 5943.673487,564.247509 5896.045376,797.766442 5829.362285,826.873598 5786.901491,752.893251 5646.672235,968.721539 5598.626716,984.342081 5471.007261,930.562800 5347.709706,938.334991 5351.354037,970.867047 5318.397513,986.842762 5290.493406,948.837669 5227.836838,885.080312 5180.192747,886.562675 5171.589238,944.045548 5146.339111,958.430844 5023.690729,957.704760 4969.785882,928.770519 4940.695421,859.316178 4945.809354,809.390738 4974.932087,776.438153 5018.003019,843.441825 5062.747258,861.170472 5116.433330,845.504920 5156.644074,791.594766 5240.741139,772.987496 5252.088682,731.032076 5267.804200,721.659437 5313.381299,751.127710 5371.427345,744.077278 5416.686930,626.946212 5339.693117,592.653231 5280.376669,662.151008 5181.105155,569.509103 5091.737584,505.941642 5000.777132,591.083519 4916.966754,523.142677 4850.582176,560.107174 4779.439547,541.355476 4786.751424,509.443117 4761.825481,492.293361 4744.431146,519.386876 4668.036379,475.274506 4658.196829,398.032263 4621.855438,371.222851 4601.982635,310.799855 4676.025883,342.248291 4733.564259,394.248155 4741.165304,359.521521 4645.159396,294.333777 4496.209530,250.266294 4320.438784,265.324757 4189.586632,266.248478 4099.738791,236.091896 4113.826393,164.911585 4084.009478,68.087191 3937.618715,69.475830 3726.021726,3.541638 3572.326866,-9.620975 3599.013299,-43.103398"/>
    <poly id="1160134321" type="building" color="255,230,230" fill="1" layer="-1.00" shape="1590.816834,2214.622906 1604.322257,2214.431677 1603.907900,2238.412709 1608.310338,2238.827917 1608.185641,2237.258897 1614.154493,2237.711190 1613.993273,2251.357718 1590.387590,2251.109919 1590.222484,2237.933263 1591.647854,2237.811506 1591.064397,2221.437277 1590.816834,2214.622906"/>
    <poly id="1160134322" type="building" color="255,230,230" fill="1" layer="-1.00" shape="1591.064397,2221.437277 1590.816834,2214.622906 1563.178224,2213.457831 1562.633093,2236.491679 1557.272455,2236.253744 1557.192244,2244.681958 1586.661426,2244.435347 1586.955076,2237.067336 1570.992871,2236.334111 1571.713942,2226.021790 1574.335986,2226.083848 1574.567619,2221.335591 1591.064397,2221.437277"/>
    <poly id="1160134323" type="building" color="255,230,230" fill="1" layer="-1.00" shape="1624.321652,2210.862226 1624.363296,2193.991874 1641.171024,2194.634157 1641.493219,2201.172627 1658.190319,2201.090383 1658.351560,2199.317101 1670.528176,2199.127845 1670.507568,2194.962279 1680.408284,2194.841319 1680.212824,2223.236974 1682.236059,2223.407064 1681.945209,2230.652967 1670.622745,2230.384833 1670.630266,2225.031497 1654.040996,2225.238439 1653.926429,2220.004389 1646.531503,2220.062536 1646.702322,2222.921047 1636.313506,2223.152667 1635.660963,2210.419848 1624.321652,2210.862226"/>
    <poly id="1164561571" type="landuse" color="194,194,130" fill="1" layer="-3.00" shape="4432.187712,3569.973083 4432.316694,3564.611440 4471.909626,3548.725588 4472.035969,3554.093376 4432.187712,3569.973083"/>
    <poly id="1213007949" type="parking" color="184,184,179" fill="1" layer="-1.00" shape="1511.567146,2209.182168 1507.908068,2209.028955 1504.736552,2266.754033 1524.626529,2267.080250 1530.358924,2209.848935 1511.567146,2209.182168"/>
    <poly id="1213007952" type="parking" color="184,184,179" fill="1" layer="-1.00" shape="1611.564928,2268.660272 1613.525476,2278.314130 1630.230493,2278.609654 1630.655128,2273.266195 1634.845198,2272.576812 1634.883835,2262.670395 1623.648919,2262.304440 1611.616607,2262.519395 1611.564928,2268.660272"/>
    <poly id="1213007953" type="parking" color="184,184,179" fill="1" layer="-1.00" shape="1543.750115,2266.677544 1543.524290,2272.980900 1565.673899,2273.205202 1568.157549,2266.877534 1543.750115,2266.677544"/>
    <poly id="1213007955" type="leisure" color="207,245,201" fill="1" layer="-2.00" shape="1719.013557,2142.975773 1718.775460,2189.707880 1720.157727,2197.160017 1725.037353,2202.962326 1728.984700,2204.610794 1834.389392,2206.253162 1840.021449,2202.588100 1843.255674,2197.666661 1844.980839,2190.288151 1844.137007,2146.829105 1843.026008,2142.671008 1840.109751,2137.770388 1835.836067,2135.514356 1829.020454,2134.486479 1791.542189,2134.442421 1791.833697,2136.159788 1738.290080,2135.413224 1739.288267,2133.548701 1726.507787,2133.334808 1722.830265,2133.958538 1720.994168,2135.236765 1718.930026,2138.231157 1719.013557,2142.975773"/>
    <poly id="1213007962" type="forest" color="140,196,107" fill="1" layer="-3.00" shape="1709.489257,1952.411649 1704.644595,1972.100466 1690.904948,2017.413220 1713.038862,2018.692693 1712.930921,2003.829137 1722.423348,2004.053968 1722.431404,2016.660464 1803.360394,2017.822518 1803.581209,2002.033763 1818.269968,2002.248570 1818.163133,2009.632116 1830.793399,2005.410945 1824.950101,1985.635487 1809.448181,1959.344653 1709.489257,1952.411649"/>
    <poly id="1217000469" type="forest" color="140,196,107" fill="1" layer="-4.00" shape="1821.424614,1612.827243 1870.267520,1629.478887 1876.406737,1612.342097 1831.500574,1596.716687 1821.424614,1612.827243"/>
    <poly id="1217000470" type="landuse" color="194,194,130" fill="1" layer="-3.00" shape="1855.085223,1753.927064 1843.488189,1753.352319 1834.655375,1748.644699 1829.857461,1753.762335 1857.632999,1763.239484 1855.085223,1753.927064"/>
    <poly id="1217000471" type="forest" color="140,196,107" fill="1" layer="-4.00" shape="1889.900066,1758.961822 1898.146498,1760.734497 1898.756986,1771.633718 1898.248896,1786.238335 1879.074916,1830.755570 1843.276837,1810.792103 1849.209790,1798.037628 1858.568538,1802.835483 1870.568412,1779.584431 1861.209641,1774.786562 1889.900066,1758.961822"/>
    <poly id="1217000472" type="forest" color="140,196,107" fill="1" layer="-4.00" shape="1920.093418,1743.705950 1987.511600,1708.385434 1988.058418,1714.062919 1982.474090,1744.429994 1979.159900,1746.606086 1920.093418,1743.705950"/>
    <poly id="1217000473" type="forest" color="140,196,107" fill="1" layer="-4.00" shape="1857.632999,1763.239484 1855.085223,1753.927064 1861.151657,1751.716192 1867.288931,1744.719936 1884.954381,1750.547737 1880.333037,1756.480332 1857.632999,1763.239484"/>
    <poly id="1217000474" type="landuse" color="194,194,130" fill="1" layer="-3.00" shape="1876.154449,1646.345389 1884.329683,1622.737127 1897.017184,1627.269611 1931.121107,1639.318332 1929.519410,1643.278834 1925.873314,1652.266709 1902.281668,1643.799281 1897.741796,1656.353504 1893.881706,1649.575651 1876.154449,1646.345389"/>
    <poly id="1217000475" type="leisure" color="207,245,201" fill="1" layer="-2.00" shape="1844.107469,1739.083546 1846.988107,1740.462430 1850.158188,1740.770808 1852.203483,1740.375008 1855.032281,1738.909304 1857.183217,1736.572305 1858.606767,1732.218828 1858.247290,1729.055953 1856.823694,1726.223277 1854.884728,1724.289151 1852.030153,1722.888668 1848.861117,1722.535887 1845.380610,1723.464124 1842.814776,1725.335911 1841.048369,1727.981913 1840.303820,1732.440341 1841.125411,1735.514204 1844.107469,1739.083546"/>
    <poly id="1217000477" type="leisure" color="207,245,201" fill="1" layer="-2.00" shape="1844.540214,1736.639182 1846.534376,1738.041483 1848.887238,1738.685912 1850.617885,1738.626968 1852.927801,1737.848699 1854.837910,1736.327901 1856.133004,1734.159434 1856.573214,1731.759674 1856.170041,1729.362139 1854.269677,1726.518163 1852.196522,1725.213949 1848.706597,1724.742495 1846.372716,1725.453555 1844.413102,1726.906541 1842.897275,1729.402985 1842.508152,1731.803956 1842.962411,1734.202701 1844.540214,1736.639182"/>
    <poly id="1217000478" type="building" color="255,230,230" fill="1" layer="-1.00" shape="1888.771531,1622.942382 1897.464361,1626.014027 1897.017184,1627.269611 1931.121107,1639.318332 1931.951400,1636.994466 1969.772342,1650.353260 1973.012988,1641.222504 1970.622273,1640.377216 1973.260205,1632.953734 1938.032393,1620.522751 1936.946337,1623.573607 1893.946488,1608.392864 1888.771531,1622.942382"/>
    <poly id="1217000480" type="forest" color="140,196,107" fill="1" layer="-4.00" shape="1962.207376,1608.345309 1988.168561,1617.835421 1995.106338,1599.007192 1969.145094,1589.517058 1962.207376,1608.345309"/>
    <poly id="1217000481" type="forest" color="140,196,107" fill="1" layer="-4.00" shape="1862.003564,1555.477797 1883.799346,1562.814036 1888.932696,1562.957932 1916.500269,1573.329986 1914.582779,1578.393692 1920.788629,1580.728880 1931.948678,1583.936807 1947.422998,1580.516278 1953.668359,1562.504614 1864.614604,1528.338935 1858.641963,1554.620642 1862.003564,1555.477797"/>
    <poly id="1217000482" type="forest" color="140,196,107" fill="1" layer="-4.00" shape="1943.223504,1615.714385 1978.185561,1628.216836 1978.500366,1644.395935 1991.609778,1644.784612 2011.361133,1588.541323 1960.455706,1565.464503 1943.223504,1615.714385"/>
    <poly id="1217029057" type="landuse" color="194,194,130" fill="1" layer="-3.00" shape="4012.086254,1888.140608 4013.091514,1856.887226 3954.746222,1854.832555 3949.544654,1854.696715 3936.665390,1878.112566 3949.598371,1878.033936 3949.807863,1869.297703 3973.850335,1869.874271 3973.580377,1881.485784 3976.202569,1881.548672 3976.062799,1887.376528 4012.086254,1888.140608"/>
    <poly id="1217029539" type="parking" color="184,184,179" fill="1" layer="-1.00" shape="1785.073515,1771.482894 1774.712998,1767.616593 1781.610212,1752.630219 1787.463984,1748.248410 1821.294959,1759.934773 1817.542333,1769.830931 1841.748669,1778.945774 1845.501587,1769.038526 1861.209641,1774.786562 1850.781330,1794.987162 1845.418397,1792.316579 1790.261584,1762.120541 1785.073515,1771.482894"/>
    <poly id="1230329093" type="building" color="255,230,230" fill="1" layer="-1.00" shape="1244.178845,3501.884772 1287.075805,3482.084448 1295.087005,3499.134060 1285.460202,3503.593581 1268.426257,3511.565505 1252.128697,3519.010634 1244.178845,3501.884772"/>
    <poly id="1230329094" type="building" color="255,230,230" fill="1" layer="-1.00" shape="1252.128697,3519.010634 1268.426257,3511.565505 1278.214133,3532.355683 1261.349326,3540.020626 1252.128697,3519.010634"/>
    <poly id="1230329095" type="building" color="255,230,230" fill="1" layer="-1.00" shape="1268.426257,3511.565505 1285.460202,3503.593581 1295.227609,3524.527688 1278.214133,3532.355683 1268.426257,3511.565505"/>
    <poly id="1230329096" type="building" color="255,230,230" fill="1" layer="-1.00" shape="1285.460202,3503.593581 1295.087005,3499.134060 1304.854393,3520.068181 1295.227609,3524.527688 1285.460202,3503.593581"/>
    <poly id="1230329097" type="building" color="255,230,230" fill="1" layer="-1.00" shape="1307.425351,3529.836369 1323.844476,3522.294270 1325.898673,3522.220665 1327.081756,3522.970586 1343.307661,3560.695578 1342.799772,3562.005286 1341.318672,3563.414155 1326.208077,3570.365169 1307.425351,3529.836369"/>