<?xml version="1.0" encoding="UTF-8"?>

<!-- generated on 2024-05-13 12:30:32.183454 by randomTrips.py UNKNOWN
<configuration>
    <net-file value="map.net.xml"/>
    <output-trip-file value="passenger_trips.xml"/>
    <route-file value="passenger_routes.rou.xml"/>
    <trip-attributes value="color=&quot;255,255,255&quot;"/>
    <vehicle-class value="passenger"/>
    <period value="1.0"/>
</configuration>
-->

<routes xmlns:xsi="http://www.w3.org/2001/XMLSchema-instance" xsi:noNamespaceSchemaLocation="http://sumo.dlr.de/xsd/routes_file.xsd">
    <vType id="passenger" vClass="passenger" color="255,255,255"/>
    <trip id="0" depart="0.00" from="305895365#0" to="-26433840#14" type="passenger"/>
    <trip id="1" depart="1.00" from="-336134826#2" to="-331668884#1" type="passenger"/>
    <trip id="2" depart="2.00" from="336098757#0" to="305924485#1" type="passenger"/>
    <trip id="3" depart="3.00" from="477508536#1" to="-305855999#0" type="passenger"/>
    <trip id="4" depart="4.00" from="-659686540#6" to="-305725659#9" type="passenger"/>
    <trip id="5" depart="5.00" from="-331636528#4" to="253089142#4" type="passenger"/>
    <trip id="6" depart="6.00" from="-26433847#5" to="-305928045" type="passenger"/>
    <trip id="7" depart="7.00" from="305905870#4" to="305768771#0" type="passenger"/>
    <trip id="8" depart="8.00" from="-331636535#5" to="305863008" type="passenger"/>
    <trip id="9" depart="9.00" from="338070124" to="-229022006#2" type="passenger"/>
    <trip id="10" depart="10.00" from="338066227#1" to="306525606#0" type="passenger"/>
    <trip id="11" depart="11.00" from="-338382553#1" to="-305905898#0" type="passenger"/>
    <trip id="12" depart="12.00" from="665294142#1" to="-338361410" type="passenger"/>
    <trip id="13" depart="13.00" from="-305860098#3" to="-305860816#3" type="passenger"/>
    <trip id="14" depart="14.00" from="338382654#2" to="305876758#0" type="passenger"/>
    <trip id="15" depart="15.00" from="338070067#3" to="336098758#1" type="passenger"/>
    <trip id="16" depart="16.00" from="305740958#2" to="668424551#1" type="passenger"/>
    <trip id="17" depart="17.00" from="-481050418#0" to="305785961#0" type="passenger"/>
    <trip id="18" depart="18.00" from="338349960#0" to="305889770#14" type="passenger"/>
    <trip id="19" depart="19.00" from="360470002#3" to="305856027#2" type="passenger"/>
    <trip id="20" depart="20.00" from="305929139#0" to="-305743265#9" type="passenger"/>
    <trip id="21" depart="21.00" from="-331960843#8" to="-336134956#2" type="passenger"/>
    <trip id="22" depart="22.00" from="-305807263#2" to="-334656653#6" type="passenger"/>
    <trip id="23" depart="23.00" from="-305863510#0" to="-336134869#3" type="passenger"/>
    <trip id="24" depart="24.00" from="305895339#2" to="-372941145#5" type="passenger"/>
    <trip id="25" depart="25.00" from="-424698791#1" to="-320566174#6" type="passenger"/>
    <trip id="26" depart="26.00" from="-336125198#0" to="656722564#0" type="passenger"/>
    <trip id="27" depart="27.00" from="305901972" to="305878716#4" type="passenger"/>
    <trip id="28" depart="28.00" from="-305916926#2" to="336098751#0" type="passenger"/>
    <trip id="29" depart="29.00" from="-305915479#1" to="-512803084#1" type="passenger"/>
    <trip id="30" depart="30.00" from="683070711" to="305901969#0" type="passenger"/>
    <trip id="31" depart="31.00" from="305777828" to="305926569#0" type="passenger"/>
    <trip id="32" depart="32.00" from="338382584#1" to="336134921#4" type="passenger"/>
    <trip id="33" depart="33.00" from="-332536811#3" to="-305733403#5" type="passenger"/>
    <trip id="34" depart="34.00" from="-338070242#2" to="-336127653#2" type="passenger"/>
    <trip id="35" depart="35.00" from="-328024581#2" to="659514193" type="passenger"/>
    <trip id="36" depart="36.00" from="424698796#9" to="-338130664#3" type="passenger"/>
    <trip id="37" depart="37.00" from="305908984#0" to="-557558073#3" type="passenger"/>
    <trip id="38" depart="38.00" from="543785279#0" to="-683108997" type="passenger"/>
    <trip id="39" depart="39.00" from="-336125164#1" to="-336098964#3" type="passenger"/>
    <trip id="40" depart="40.00" from="305785966#7" to="-336125140#0" type="passenger"/>
    <trip id="41" depart="41.00" from="305856025#0" to="532231190#2" type="passenger"/>
    <trip id="42" depart="42.00" from="-615811565#2" to="-331636534#11" type="passenger"/>
    <trip id="43" depart="43.00" from="703945751#1" to="26430221#8" type="passenger"/>
    <trip id="44" depart="44.00" from="-305856040#0" to="-305746818#1" type="passenger"/>
    <trip id="45" depart="45.00" from="-305874258" to="305895337#0" type="passenger"/>
    <trip id="46" depart="46.00" from="336139590#1" to="-663145602#4" type="passenger"/>
    <trip id="47" depart="47.00" from="-305781145#2" to="-543256274#0" type="passenger"/>
    <trip id="48" depart="48.00" from="702707864" to="305740959#2" type="passenger"/>
    <trip id="49" depart="49.00" from="667681746#7" to="372815018" type="passenger"/>
    <trip id="50" depart="50.00" from="-252560634#9" to="332143034#0" type="passenger"/>
    <trip id="51" depart="51.00" from="305923201#3" to="305749076#11" type="passenger"/>
    <trip id="52" depart="52.00" from="-336125188#3" to="305901989#3" type="passenger"/>
    <trip id="53" depart="53.00" from="-305874615#2" to="-666042469#1" type="passenger"/>
    <trip id="54" depart="54.00" from="-668863760" to="665294140" type="passenger"/>
    <trip id="55" depart="55.00" from="424698796#0" to="-336125156#0" type="passenger"/>
    <trip id="56" depart="56.00" from="252560634#4" to="-305919595#4" type="passenger"/>
    <trip id="57" depart="57.00" from="543767958#2" to="426141202#16" type="passenger"/>
    <trip id="58" depart="58.00" from="-336143896#3" to="305899871#9" type="passenger"/>
    <trip id="59" depart="59.00" from="305874621#0" to="-305905868#1" type="passenger"/>
    <trip id="60" depart="60.00" from="336125144#1" to="305751426" type="passenger"/>
    <trip id="61" depart="61.00" from="336134886#1" to="305741395" type="passenger"/>
    <trip id="62" depart="62.00" from="-1066933365#3" to="-338349873#1" type="passenger"/>
    <trip id="63" depart="63.00" from="-252608041#2" to="651949027#21" type="passenger"/>
    <trip id="64" depart="64.00" from="426141203#16" to="338361400#0" type="passenger"/>
    <trip id="65" depart="65.00" from="-338070079" to="-305768773#10" type="passenger"/>
    <trip id="66" depart="66.00" from="426141202#4" to="663145597#1" type="passenger"/>
    <trip id="67" depart="67.00" from="-305850722#5" to="232200525#9" type="passenger"/>
    <trip id="68" depart="68.00" from="-305804704#0" to="336127669#0" type="passenger"/>
    <trip id="69" depart="69.00" from="336127618#0" to="-305884517#9" type="passenger"/>
    <trip id="70" depart="70.00" from="-713949729" to="305780075" type="passenger"/>
    <trip id="71" depart="71.00" from="-336125165#1" to="426141203#17" type="passenger"/>
    <trip id="72" depart="72.00" from="-659709045#2" to="-328033751#0" type="passenger"/>
    <trip id="73" depart="73.00" from="305743259#0" to="336098758#5" type="passenger"/>
    <trip id="74" depart="74.00" from="-305929074#1" to="-338070201#2" type="passenger"/>
    <trip id="75" depart="75.00" from="684566623" to="305915439#1" type="passenger"/>
    <trip id="76" depart="76.00" from="-666036506#1" to="305729267#1" type="passenger"/>
    <trip id="77" depart="77.00" from="-305878726#9" to="-331687054#2" type="passenger"/>
    <trip id="78" depart="78.00" from="-338361411#3" to="305862739#2" type="passenger"/>
    <trip id="79" depart="79.00" from="-332536812#8" to="-331636535#9" type="passenger"/>
    <trip id="80" depart="80.00" from="-305804711#9" to="305895364#17" type="passenger"/>
    <trip id="81" depart="81.00" from="-332536811#10" to="543761288#0" type="passenger"/>
    <trip id="82" depart="82.00" from="35173394#0" to="-305804711#7" type="passenger"/>
    <trip id="83" depart="83.00" from="-336098764#1" to="305920268#0" type="passenger"/>
    <trip id="84" depart="84.00" from="-331532195#2" to="-305889792#1" type="passenger"/>
    <trip id="85" depart="85.00" from="652171365#4" to="305808528#4" type="passenger"/>
    <trip id="86" depart="86.00" from="-702707869#1" to="336134964#4" type="passenger"/>
    <trip id="87" depart="87.00" from="338070068#0" to="-305925459#0" type="passenger"/>
    <trip id="88" depart="88.00" from="-305860818#11" to="-665856431#1" type="passenger"/>
    <trip id="89" depart="89.00" from="-659856446#1" to="-713919832#0" type="passenger"/>
    <trip id="90" depart="90.00" from="332536812#4" to="305922794#1" type="passenger"/>
    <trip id="91" depart="91.00" from="676722352#2" to="-305861380#2" type="passenger"/>
    <trip id="92" depart="92.00" from="-64923927#0" to="-338382559" type="passenger"/>
    <trip id="93" depart="93.00" from="360470002#3" to="-336098972#7" type="passenger"/>
    <trip id="94" depart="94.00" from="-305925296#15" to="-668863766#1" type="passenger"/>
    <trip id="95" depart="95.00" from="-659686540#5" to="-336134876#1" type="passenger"/>
    <trip id="96" depart="96.00" from="-336098985#0" to="64923926#2" type="passenger"/>
    <trip id="97" depart="97.00" from="-667384125#1" to="372817909" type="passenger"/>
    <trip id="98" depart="98.00" from="305756125#0" to="-305751422#0" type="passenger"/>
    <trip id="99" depart="99.00" from="713949730#2" to="338382573#3" type="passenger"/>
    <trip id="100" depart="100.00" from="667384126" to="651089888#0" type="passenger"/>
    <trip id="101" depart="101.00" from="338382667#1" to="-305915508#1" type="passenger"/>
    <trip id="102" depart="102.00" from="190291566#2" to="-331532195#14" type="passenger"/>
    <trip id="103" depart="103.00" from="-64923867#1" to="-305768775#3" type="passenger"/>
    <trip id="104" depart="104.00" from="-512780754#0" to="682692646" type="passenger"/>
    <trip id="105" depart="105.00" from="-336125172#1" to="336134963#1" type="passenger"/>
    <trip id="106" depart="106.00" from="-668871467" to="-663167134#3" type="passenger"/>
    <trip id="107" depart="107.00" from="665294144" to="702707864" type="passenger"/>
    <trip id="108" depart="108.00" from="305777034#0" to="331960464#7" type="passenger"/>
    <trip id="109" depart="109.00" from="-305905892#2" to="-336143889#1" type="passenger"/>
    <trip id="110" depart="110.00" from="667384123#0" to="305856778#1" type="passenger"/>
    <trip id="111" depart="111.00" from="305746820#0" to="336109220#0" type="passenger"/>
    <trip id="112" depart="112.00" from="-305768768#0" to="305860120#4" type="passenger"/>
    <trip id="113" depart="113.00" from="252560637#8" to="35173383#3" type="passenger"/>
    <trip id="114" depart="114.00" from="-305908971#1" to="666042466#0" type="passenger"/>
    <trip id="115" depart="115.00" from="-305807264#1" to="-305924220#3" type="passenger"/>
    <trip id="116" depart="116.00" from="305862716" to="305924215#1" type="passenger"/>
    <trip id="117" depart="117.00" from="-336098721#0" to="-305878061#2" type="passenger"/>
    <trip id="118" depart="118.00" from="477508527#18" to="-336098950#8" type="passenger"/>
    <trip id="119" depart="119.00" from="305861381" to="305889771#5" type="passenger"/>
    <trip id="120" depart="120.00" from="-659479962" to="305860120#22" type="passenger"/>
    <trip id="121" depart="121.00" from="305720546#0" to="655845983" type="passenger"/>
    <trip id="122" depart="122.00" from="-305929115#7" to="331684191#0" type="passenger"/>
    <trip id="123" depart="123.00" from="-336098777#0" to="-585685047#1" type="passenger"/>
    <trip id="124" depart="124.00" from="305919564#1" to="-336143970#1" type="passenger"/>
    <trip id="125" depart="125.00" from="-338130664#1" to="336121375#2" type="passenger"/>
    <trip id="126" depart="126.00" from="-305805110" to="-682914938" type="passenger"/>
    <trip id="127" depart="127.00" from="713919832#0" to="702707868#6" type="passenger"/>
    <trip id="128" depart="128.00" from="-305805118#1" to="-331532194#4" type="passenger"/>
    <trip id="129" depart="129.00" from="-336125172#1" to="655558244#0" type="passenger"/>
    <trip id="130" depart="130.00" from="449532767#10" to="467420093#1" type="passenger"/>
    <trip id="131" depart="131.00" from="-424698788#13" to="-305908973#0" type="passenger"/>
    <trip id="132" depart="132.00" from="338358550" to="328033368#2" type="passenger"/>
    <trip id="133" depart="133.00" from="305876758#3" to="682823301#1" type="passenger"/>
    <trip id="134" depart="134.00" from="305906388#0" to="-232200510#17" type="passenger"/>
    <trip id="135" depart="135.00" from="338130666#4" to="-336143948#0" type="passenger"/>
    <trip id="136" depart="136.00" from="305915509#1" to="658136327#5" type="passenger"/>
    <trip id="137" depart="137.00" from="-305890301#0" to="-305876762#0" type="passenger"/>
    <trip id="138" depart="138.00" from="-305869126#6" to="305785966#18" type="passenger"/>
    <trip id="139" depart="139.00" from="-336134785#0" to="305876765#1" type="passenger"/>
    <trip id="140" depart="140.00" from="331636527#3" to="-305929115#6" type="passenger"/>
    <trip id="141" depart="141.00" from="305895323" to="-336125163#1" type="passenger"/>
    <trip id="142" depart="142.00" from="229022009#0" to="543761287#0" type="passenger"/>
    <trip id="143" depart="143.00" from="338382641#1" to="-305860090" type="passenger"/>
    <trip id="144" depart="144.00" from="-659856446#1" to="-336134858#0" type="passenger"/>
    <trip id="145" depart="145.00" from="-182649299#8" to="336134874#1" type="passenger"/>
    <trip id="146" depart="146.00" from="305895352#0" to="-336125115#0" type="passenger"/>
    <trip id="147" depart="147.00" from="336098853#1" to="305785960#1" type="passenger"/>
    <trip id="148" depart="148.00" from="-665018171#0" to="-232200535#4" type="passenger"/>
    <trip id="149" depart="149.00" from="-305805339#2" to="467420106#0" type="passenger"/>
    <trip id="150" depart="150.00" from="532231190#2" to="305768773#11" type="passenger"/>
    <trip id="151" depart="151.00" from="338359542#3" to="305860115#0" type="passenger"/>
    <trip id="152" depart="152.00" from="-305898588#2" to="-305883751#7" type="passenger"/>
    <trip id="153" depart="153.00" from="-338070098#0" to="534875777#4" type="passenger"/>
    <trip id="154" depart="154.00" from="336143896#1" to="372815017#0" type="passenger"/>
    <trip id="155" depart="155.00" from="481197248#1" to="-320573802#2" type="passenger"/>
    <trip id="156" depart="156.00" from="-336098973#2" to="-305864165#4" type="passenger"/>
    <trip id="157" depart="157.00" from="336134896#3" to="477508527#15" type="passenger"/>
    <trip id="158" depart="158.00" from="-651892622" to="305889785" type="passenger"/>
    <trip id="159" depart="159.00" from="-305905890#1" to="651981620#1" type="passenger"/>
    <trip id="160" depart="160.00" from="372798966#1" to="668667305" type="passenger"/>
    <trip id="161" depart="161.00" from="338070155#0" to="467420099#3" type="passenger"/>
    <trip id="162" depart="162.00" from="-26433840#10" to="336098890#1" type="passenger"/>
    <trip id="163" depart="163.00" from="-338358396#2" to="652171365#6" type="passenger"/>
    <trip id="164" depart="164.00" from="336642853#3" to="375583918#5" type="passenger"/>
    <trip id="165" depart="165.00" from="338070155#0" to="-336127632#0" type="passenger"/>
    <trip id="166" depart="166.00" from="336134951#1" to="-305869459#1" type="passenger"/>
    <trip id="167" depart="167.00" from="414864393#20" to="372798966#2" type="passenger"/>
    <trip id="168" depart="168.00" from="-331647400#3" to="338349707#1" type="passenger"/>
    <trip id="169" depart="169.00" from="-682603217" to="-338066227#1" type="passenger"/>
    <trip id="170" depart="170.00" from="336139631#2" to="-331961119#0" type="passenger"/>
    <trip id="171" depart="171.00" from="-26430221#0" to="-305926547#0" type="passenger"/>
    <trip id="172" depart="172.00" from="-338349957#2" to="375583956#3" type="passenger"/>
    <trip id="173" depart="173.00" from="667143880#1" to="-336134884#4" type="passenger"/>
    <trip id="174" depart="174.00" from="305895371#8" to="-64923890#1" type="passenger"/>
    <trip id="175" depart="175.00" from="669055706#0" to="305749067#1" type="passenger"/>
    <trip id="176" depart="176.00" from="655602771#2" to="-305876761#1" type="passenger"/>
    <trip id="177" depart="177.00" from="667681745#4" to="-305919595#2" type="passenger"/>
    <trip id="178" depart="178.00" from="666022880#6" to="-336125183#3" type="passenger"/>
    <trip id="179" depart="179.00" from="-305869462#7" to="-666036511#2" type="passenger"/>
    <trip id="180" depart="180.00" from="332536812#0" to="-338070237#1" type="passenger"/>
    <trip id="181" depart="181.00" from="305872807#3" to="26433840#21" type="passenger"/>
    <trip id="182" depart="182.00" from="-543338323#2" to="305856021#3" type="passenger"/>
    <trip id="183" depart="183.00" from="-336109167" to="331635037#4" type="passenger"/>
    <trip id="184" depart="184.00" from="-162874582#0" to="64937030#0" type="passenger"/>
    <trip id="185" depart="185.00" from="305743250#2" to="331960840#4" type="passenger"/>
    <trip id="186" depart="186.00" from="336098860#1" to="305922772#7" type="passenger"/>
    <trip id="187" depart="187.00" from="-372816730" to="-305804708#5" type="passenger"/>
    <trip id="188" depart="188.00" from="305915514#2" to="-338350033#5" type="passenger"/>
    <trip id="189" depart="189.00" from="-338070219#1" to="338459492#1" type="passenger"/>
    <trip id="190" depart="190.00" from="331636535#4" to="-336143974#1" type="passenger"/>
    <trip id="191" depart="191.00" from="-338070131#0" to="-653362592" type="passenger"/>
    <trip id="192" depart="192.00" from="-64923926#2" to="-336139626#0" type="passenger"/>
    <trip id="193" depart="193.00" from="-305883751#8" to="-659856446#3" type="passenger"/>
    <trip id="194" depart="194.00" from="656410438" to="305924488#4" type="passenger"/>
    <trip id="195" depart="195.00" from="520361035" to="305883740" type="passenger"/>
    <trip id="196" depart="196.00" from="-336143947#2" to="305775170#0" type="passenger"/>
    <trip id="197" depart="197.00" from="-1066933365#0" to="-336134944#3" type="passenger"/>
    <trip id="198" depart="198.00" from="-665074461#1" to="305857491#1" type="passenger"/>
    <trip id="199" depart="199.00" from="305908973#0" to="-702707867#2" type="passenger"/>
    <trip id="200" depart="200.00" from="-667214693#3" to="-331532195#13" type="passenger"/>
    <trip id="201" depart="201.00" from="-703940166" to="543279494#1" type="passenger"/>
    <trip id="202" depart="202.00" from="336143889#1" to="-305916914#0" type="passenger"/>
    <trip id="203" depart="203.00" from="-305849737#7" to="305721120#1" type="passenger"/>
    <trip id="204" depart="204.00" from="305895309#2" to="-338361397#0" type="passenger"/>
    <trip id="205" depart="205.00" from="338136960#0" to="336121364#2" type="passenger"/>
    <trip id="206" depart="206.00" from="305919577#4" to="-331687054#1" type="passenger"/>
    <trip id="207" depart="207.00" from="-305928044#2" to="-26433762#5" type="passenger"/>
    <trip id="208" depart="208.00" from="-336098911#2" to="187964627#0" type="passenger"/>
    <trip id="209" depart="209.00" from="338382682#0" to="-305805114#3" type="passenger"/>
    <trip id="210" depart="210.00" from="-656410437#0" to="305895354#1" type="passenger"/>
    <trip id="211" depart="211.00" from="-305926565#1" to="305929136#2" type="passenger"/>
    <trip id="212" depart="212.00" from="232200528#4" to="-336098905#0" type="passenger"/>
    <trip id="213" depart="213.00" from="305910895" to="-229013927#15" type="passenger"/>
    <trip id="214" depart="214.00" from="336105417#2" to="336134865#1" type="passenger"/>
    <trip id="215" depart="215.00" from="-305869126#3" to="-665042883#0" type="passenger"/>
    <trip id="216" depart="216.00" from="-305919577#12" to="666019727#0" type="passenger"/>
    <trip id="217" depart="217.00" from="26433762#8" to="-305749078#4" type="passenger"/>
    <trip id="218" depart="218.00" from="-336098972#5" to="340917880#0" type="passenger"/>
    <trip id="219" depart="219.00" from="-669628037#1" to="338070067#8" type="passenger"/>
    <trip id="220" depart="220.00" from="305916924#3" to="682914938" type="passenger"/>
    <trip id="221" depart="221.00" from="305862726#1" to="665035888" type="passenger"/>
    <trip id="222" depart="222.00" from="477508534#9" to="305880130" type="passenger"/>
    <trip id="223" depart="223.00" from="331636534#5" to="253089139#0" type="passenger"/>
    <trip id="224" depart="224.00" from="338349996#2" to="305775169" type="passenger"/>
    <trip id="225" depart="225.00" from="478381201#2" to="336105407#1" type="passenger"/>
    <trip id="226" depart="226.00" from="-713919833#1" to="-336121370#1" type="passenger"/>
    <trip id="227" depart="227.00" from="-336098964#3" to="305899863#1" type="passenger"/>
    <trip id="228" depart="228.00" from="336127606" to="305733426#0" type="passenger"/>
    <trip id="229" depart="229.00" from="305889770#8" to="-336134838#0" type="passenger"/>
    <trip id="230" depart="230.00" from="-305806288#1" to="-336134938#1" type="passenger"/>
    <trip id="231" depart="231.00" from="-336134775#2" to="-338349689#0" type="passenger"/>
    <trip id="232" depart="232.00" from="305743265#10" to="-305895335#0" type="passenger"/>
    <trip id="233" depart="233.00" from="-332536816#1" to="305929115#7" type="passenger"/>
    <trip id="234" depart="234.00" from="320565111#0" to="-305785960#6" type="passenger"/>
    <trip id="235" depart="235.00" from="-651949027#10" to="305755553#1" type="passenger"/>
    <trip id="236" depart="236.00" from="-656722564#3" to="-305929138#14" type="passenger"/>
    <trip id="237" depart="237.00" from="-659506918#5" to="543471912#14" type="passenger"/>
    <trip id="238" depart="238.00" from="305856021#3" to="305929128#3" type="passenger"/>
    <trip id="239" depart="239.00" from="35173255#11" to="336134807#1" type="passenger"/>
    <trip id="240" depart="240.00" from="-512793352#0" to="-229013927#4" type="passenger"/>
    <trip id="241" depart="241.00" from="-338410424#0" to="336125095" type="passenger"/>
    <trip id="242" depart="242.00" from="338410575#1" to="665281085" type="passenger"/>
    <trip id="243" depart="243.00" from="-659479961#0" to="336109206#1" type="passenger"/>
    <trip id="244" depart="244.00" from="305751422#19" to="305876235#0" type="passenger"/>
    <trip id="245" depart="245.00" from="-331636535#7" to="-331636534#3" type="passenger"/>
    <trip id="246" depart="246.00" from="-665857564#1" to="-305723294#4" type="passenger"/>
    <trip id="247" depart="247.00" from="-338361393#2" to="305925294#1" type="passenger"/>
    <trip id="248" depart="248.00" from="-64937016#5" to="-305915500#4" type="passenger"/>
    <trip id="249" depart="249.00" from="-684315735#6" to="-305883753#0" type="passenger"/>
    <trip id="250" depart="250.00" from="305882792#1" to="-26433877#4" type="passenger"/>
    <trip id="251" depart="251.00" from="-544405267#1" to="305805933#1" type="passenger"/>
    <trip id="252" depart="252.00" from="-26433877#6" to="305905872#2" type="passenger"/>
    <trip id="253" depart="253.00" from="-305895308" to="-684339056#1" type="passenger"/>
    <trip id="254" depart="254.00" from="-305749078#3" to="-512798092#0" type="passenger"/>
    <trip id="255" depart="255.00" from="-328033367#1" to="-338349957#3" type="passenger"/>
    <trip id="256" depart="256.00" from="336125116" to="-512798092#0" type="passenger"/>
    <trip id="257" depart="257.00" from="336105439#2" to="338361403#2" type="passenger"/>
    <trip id="258" depart="258.00" from="-336105412#1" to="-305808205#15" type="passenger"/>
    <trip id="259" depart="259.00" from="-252608041#13" to="305751427" type="passenger"/>
    <trip id="260" depart="260.00" from="744891216#1" to="-338385231" type="passenger"/>
    <trip id="261" depart="261.00" from="305905870#9" to="336134953" type="passenger"/>
    <trip id="262" depart="262.00" from="305905893#2" to="336125115#1" type="passenger"/>
    <trip id="263" depart="263.00" from="659856445#1" to="-305929057#1" type="passenger"/>
    <trip id="264" depart="264.00" from="-252608817#3" to="-305903217#0" type="passenger"/>
    <trip id="265" depart="265.00" from="-305883737" to="305922759#3" type="passenger"/>
    <trip id="266" depart="266.00" from="305804700#0" to="-331636527#5" type="passenger"/>
    <trip id="267" depart="267.00" from="305929096#0" to="336134830#0" type="passenger"/>
    <trip id="268" depart="268.00" from="-305915515#2" to="305878048" type="passenger"/>
    <trip id="269" depart="269.00" from="336098970#3" to="-305876235#4" type="passenger"/>
    <trip id="270" depart="270.00" from="338348205#3" to="667143880#9" type="passenger"/>
    <trip id="271" depart="271.00" from="-305869462#1" to="-26433840#27" type="passenger"/>
    <trip id="272" depart="272.00" from="-338070186#0" to="305924488#5" type="passenger"/>
    <trip id="273" depart="273.00" from="665801431#0" to="-586506536#2" type="passenger"/>
    <trip id="274" depart="274.00" from="331634837#2" to="-305805577#2" type="passenger"/>
    <trip id="275" depart="275.00" from="305926552" to="305895335#0" type="passenger"/>
    <trip id="276" depart="276.00" from="-305864161#3" to="336134891#1" type="passenger"/>
    <trip id="277" depart="277.00" from="338382685#4" to="305874268#1" type="passenger"/>
    <trip id="278" depart="278.00" from="-305878728#0" to="682623534" type="passenger"/>
    <trip id="279" depart="279.00" from="336134924#2" to="-338382682#0" type="passenger"/>
    <trip id="280" depart="280.00" from="-665035891" to="-460907332#1" type="passenger"/>
    <trip id="281" depart="281.00" from="252560644#18" to="-338382606#1" type="passenger"/>
    <trip id="282" depart="282.00" from="338382680#0" to="338349948#11" type="passenger"/>
    <trip id="283" depart="283.00" from="-305869126#10" to="666042466#0" type="passenger"/>
    <trip id="284" depart="284.00" from="305895339#0" to="338359543#0" type="passenger"/>
    <trip id="285" depart="285.00" from="320565359#6" to="-666580075" type="passenger"/>
    <trip id="286" depart="286.00" from="334657052#8" to="667214705" type="passenger"/>
    <trip id="287" depart="287.00" from="-336129129" to="338070219#0" type="passenger"/>
    <trip id="288" depart="288.00" from="305743246" to="232200510#9" type="passenger"/>
    <trip id="289" depart="289.00" from="-665856434#2" to="336098772" type="passenger"/>
    <trip id="290" depart="290.00" from="-336127652" to="35173256#8" type="passenger"/>
    <trip id="291" depart="291.00" from="338349996#6" to="-305852629#1" type="passenger"/>
    <trip id="292" depart="292.00" from="449532768#14" to="-336098903#2" type="passenger"/>
    <trip id="293" depart="293.00" from="-683108992#0" to="305878728#2" type="passenger"/>
    <trip id="294" depart="294.00" from="-512780754#1" to="-305722509#1" type="passenger"/>
    <trip id="295" depart="295.00" from="338382690#6" to="-305922780#1" type="passenger"/>
    <trip id="296" depart="296.00" from="-328033368#7" to="337873206#19" type="passenger"/>
    <trip id="297" depart="297.00" from="-338382553#3" to="467420095#17" type="passenger"/>
    <trip id="298" depart="298.00" from="305929118#1" to="-336134853#2" type="passenger"/>
    <trip id="299" depart="299.00" from="-233180607#14" to="663159963" type="passenger"/>
    <trip id="300" depart="300.00" from="-305850722#5" to="331960843#6" type="passenger"/>
    <trip id="301" depart="301.00" from="229022009#1" to="336125185#2" type="passenger"/>
    <trip id="302" depart="302.00" from="305926552" to="305906381#2" type="passenger"/>
    <trip id="303" depart="303.00" from="232200510#23" to="336143950" type="passenger"/>
    <trip id="304" depart="304.00" from="-305860102#1" to="-331646892#4" type="passenger"/>
    <trip id="305" depart="305.00" from="305926569#1" to="-338070087#1" type="passenger"/>
    <trip id="306" depart="306.00" from="305852623" to="182649297" type="passenger"/>
    <trip id="307" depart="307.00" from="305735893#2" to="-665055245" type="passenger"/>
    <trip id="308" depart="308.00" from="336098944#0" to="-338358396#8" type="passenger"/>
    <trip id="309" depart="309.00" from="305929133#1" to="-336134778#1" type="passenger"/>
    <trip id="310" depart="310.00" from="-336105365#1" to="-305878723" type="passenger"/>
    <trip id="311" depart="311.00" from="-305925945#0" to="-305878056#8" type="passenger"/>
    <trip id="312" depart="312.00" from="305740956#1" to="336134769#5" type="passenger"/>
    <trip id="313" depart="313.00" from="-305923202#2" to="-331635038#14" type="passenger"/>
    <trip id="314" depart="314.00" from="190291532#5" to="334656217#3" type="passenger"/>
    <trip id="315" depart="315.00" from="668465209#0" to="305736293#3" type="passenger"/>
    <trip id="316" depart="316.00" from="-336134909#1" to="-305862744#7" type="passenger"/>
    <trip id="317" depart="317.00" from="-305926559#0" to="-331960844#2" type="passenger"/>
    <trip id="318" depart="318.00" from="-305920267#0" to="-252560641#18" type="passenger"/>
    <trip id="319" depart="319.00" from="305740938#2" to="-336134830#1" type="passenger"/>
    <trip id="320" depart="320.00" from="668410516#0" to="305785966#2" type="passenger"/>
    <trip id="321" depart="321.00" from="305929066#1" to="-305883729#0" type="passenger"/>
    <trip id="322" depart="322.00" from="372939924" to="233180607#14" type="passenger"/>
    <trip id="323" depart="323.00" from="414866293" to="305852623" type="passenger"/>
    <trip id="324" depart="324.00" from="-684523794" to="-667681746#5" type="passenger"/>
    <trip id="325" depart="325.00" from="-305923192" to="-305751422#4" type="passenger"/>
    <trip id="326" depart="326.00" from="656718118" to="190291566#2" type="passenger"/>