<?xml version="1.0" encoding="UTF-8"?>

<!-- generated on 2024-05-13 11:16:50.280288 by randomTrips.py UNKNOWN
<configuration>
    <net-file value="map.net.xml"/>
    <output-trip-file value="trips.xml"/>
    <route-file value="routes.rou.xml"/>
    <end value="600.0"/>
    <period value="0.5"/>
</configuration>
-->

<!-- generated on 2024-05-13 11:16:41 by Eclipse SUMO duarouter Version 1.20.0
<configuration xmlns:xsi="http://www.w3.org/2001/XMLSchema-instance" xsi:noNamespaceSchemaLocation="http://sumo.dlr.de/xsd/duarouterConfiguration.xsd">

    <input>
        <net-file value="map.net.xml"/>
        <route-files value="trips.xml"/>
    </input>

    <output>
        <output-file value="routes.rou.xml"/>
        <alternatives-output value="NUL"/>
    </output>

    <time>
        <begin value="0"/>
        <end value="600.0"/>
    </time>

    <report>
        <no-warnings value="true"/>
        <ignore-errors value="true"/>
        <no-step-log value="true"/>
    </report>

</configuration>
-->

<routes xmlns:xsi="http://www.w3.org/2001/XMLSchema-instance" xsi:noNamespaceSchemaLocation="http://sumo.dlr.de/xsd/routes_file.xsd">
    <vehicle id="0" depart="0.00">
        <route edges="305895365#0 305895365#1 305895365#2 416728897#3 416728897#4 416728897#5 -305895352#7 -305895352#6 -305895352#5 -305895352#4 -305895352#3 -305895352#2 -305895352#1 -305895352#0 305872795#2 232200516#0 232200516#1 232200516#2 586350059#0 586350059#1 586350059#2 586350059#3 586350059#4 586350060 328023840#0 328023843 481197248#2 426141203#0 426141203#1 232200533#3 232200533#4 467420101#0 467420101#1 467420101#2 467420101#3 467420101#4 467420101#5 467420101#6 467420101#7 -26433840#26 -26433840#25 -26433840#24 -26433840#23 -26433840#22 -26433840#21 -26433840#20 -26433840#19 -26433840#18 -26433840#17 -26433840#16 -26433840#15 -26433840#14"/>
    </vehicle>
    <vehicle id="1" depart="0.50">
        <route edges="-336134826#2 336134826#2 336134826#3 -336134952#3 336134867#0 336134867#1 232200510#9 232200510#10 232200510#11 232200510#12 232200510#13 232200510#14 232200510#15 232200510#16 232200510#17 232200510#18 232200510#19 232200510#20 232200510#21 232200510#22 232200510#23 232200510#24 512780757#0 480990378#0 480990378#1 -35173097#11 -35173097#10 -35173097#9 -35173097#8 328034633#0 328034633#1 328034633#2 328034633#3 328034633#4 328034633#5 328034633#6 328034633#7 328034633#8 328034633#9 328034633#10 -334656650#1 -334656650#0 -336121372#0 -331668884#3 -331668884#2 -331668884#1"/>
    </vehicle>
    <vehicle id="2" depart="1.00">
        <route edges="336098757#0 336098757#1 336098985#2 336098985#3 336098985#4 336098764#0 336098764#1 -477508527#14 -26430169#4 -26430169#3 -26430169#2 467420095#8 467420095#9 467420095#10 467420095#11 467420095#12 467420095#13 467420095#14 -336098972#12 -336098972#11 -336098972#10 -336098972#9 -336098972#8 -336098972#7 -336098972#6 -336098972#5 -336098972#4 -336098972#3 -336098972#2 -336098972#1 -336098972#0 -1164561566#1 544570314#7 544570314#8 544570314#9 544570314#10 544570314#11 544570314#12 449532767#0 449532767#1 449532767#2 449532767#3 449532767#4 449532767#5 449532767#6 449532767#7 449532767#8 449532767#9 449532767#10 449532767#11 233179508 233179505 26430079#2 26430079#3 26430079#4 26430079#5 26430079#6 26430079#7 26430079#8 26430079#9 26430079#10 26430079#11 26430079#12 187964627#0 187964627#1 187964627#2 187964627#3 187964627#4 187964627#5 187964627#6 187964627#7 187964627#8 233180603#0 233180603#1 233180603#2 233180603#3 232200515#0 232200515#1 232200515#2 586350059#0 586350059#1 586350059#2 586350059#3 586350059#4 586350060 328023840#0 328023840#1 328023840#2 252608806#1 481197246#0 481197246#1 481197246#2 252608809 232200543#0 232200543#1 232200543#2 232200543#3 232200543#4 232200543#5 232200543#6 232200543#7 232200543#8 232200543#9 232200513#0 232200513#1 232200513#2 467420103#0 467420103#1 467420103#2 467420103#3 305924485#0 305924485#1"/>
    </vehicle>
    <vehicle id="3" depart="1.50">
        <route edges="477508536#1 305905884#0 585685050 305910903#1 305910903#2 305910903#3 -305869126#1 585685046 460907329 305746815#0 305746815#1 305746815#2 305746815#3 305746815#4 305746815#5 305746815#6 305746815#7 305746815#8 305746815#9 305746815#10 305746815#11 305746815#12 305746815#13 305743265#7 305743265#8 305743265#9 -305749076#13 -305749076#12 -305749076#11 -305749076#10 -305749076#9 -305749076#8 -305749076#7 -305749076#6 -305749076#5 -305749076#4 -305749076#3 -305749076#2 -305749076#1 -305749076#0 252560641#13 -657894553 657894549#0 657894549#1 657894549#2 657894550 657894552 657894559 252608814 252608815 -252560635#9 -252560635#8 -252560635#7 305735900#0 305735900#1 305735900#2 305735900#3 305735900#4 305735900#5 305735900#6 305735900#7 305735900#8 305734212#0 305734216#0 305734216#1 305734216#2 305734216#3 305734216#4 305734216#5 305734216#6 -305855999#1 -305855999#0"/>
    </vehicle>
    <vehicle id="4" depart="2.00">
        <route edges="-659686540#6 -659686540#5 -659686540#4 -659686540#3 -659686540#2 -659686540#1 -659686540#0 305780086#1 305780086#2 190291536#6 306832062#0 478381191#0 478381191#1 478381191#2 478381191#3 478381191#4 478381191#5 478381191#6 478381191#7 478381191#8 478381191#9 478381191#10 478381191#11 478381191#12 478381185#1 478381185#2 478381185#3 478381185#4 305856032#0 305856017#0 -659501913#1 -659501913#0 -305725659#9"/>
    </vehicle>
    <vehicle id="5" depart="2.50">
        <route edges="-331636528#4 -331636528#3 663159963 23035436#11 23035436#12 23035436#13 23035436#14 23035436#15 663145602#0 338348205#2 338348205#3 338348205#4 338348205#5 331634762#0 331634762#1 331634762#2 331634762#3 331634762#4 331634762#5 331634762#6 26430110 232200510#0 232200510#1 232200510#2 232200510#3 232200510#4 232200510#5 232200510#6 232200510#7 232200510#8 232200510#9 232200510#10 232200510#11 232200510#12 232200510#13 232200510#14 232200510#15 232200510#16 232200510#17 232200510#18 232200510#19 232200510#20 232200510#21 232200510#22 232200510#23 232200510#24 512780757#0 512780757#1 1265499556 512780755 512780754#0 512780754#1 -372806570#3 -253089142#4 253089142#4"/>
    </vehicle>
    <vehicle id="6" depart="3.00">
        <route edges="-26433847#5 26433847#5 26433847#6 26433847#7 26433847#8 26433847#9 26433847#10 26433847#11 338360977#0 1134942192#4 666895321 328022790#0 328022790#1 328022790#2 252608037 252608806#0 252608806#1 481197247 481197249 -586350060 232200540#0 232200540#1 232200540#2 26535244#0 233180608 233180606#5 233180606#6 306525610#0 306525610#1 306525610#2 306525610#3 305928034#0 -305928045"/>
    </vehicle>
    <vehicle id="7" depart="3.50">
        <route edges="305905870#4 -305905870#4 305926673 -305926688#1 -305926688#0 305905902#5 305905902#6 305905902#7 652826115 -305869126#15 -305869126#14 -305869126#13 -305869126#12 -305869126#11 -305869126#10 -305869126#9 -305869126#8 -305869126#7 -305869126#6 -305869126#5 -305869126#4 -305869126#3 -305869126#2 -305869126#1 585685046 460907329 305746815#0 305746815#1 305746815#2 305746815#3 305746815#4 305746815#5 305746815#6 305746815#7 305746815#8 305746815#9 305746815#10 305746815#11 305746815#12 305746815#13 305743265#7 305743265#8 305743265#9 -305749076#13 -305749076#12 -305749076#11 -305749076#10 -305749076#9 -305749076#8 -305749076#7 -305749076#6 -305749076#5 -305749076#4 -305749076#3 -305749076#2 -305749076#1 -305749076#0 -252560641#12 -252560641#11 -252560641#10 -252560641#9 -252560641#8 305768771#0"/>
    </vehicle>
    <vehicle id="8" depart="4.00">
        <route edges="-331636535#5 331636535#5 331636535#6 331636535#7 331636535#8 331636535#9 -232200510#18 -232200510#17 -232200510#16 -232200510#15 -232200510#14 -232200510#13 -232200510#12 -232200510#11 -232200510#10 -232200510#9 -232200510#8 -232200510#7 -232200510#6 -232200510#5 -232200510#4 -232200510#3 -232200510#2 -232200510#1 -232200510#0 232200517#0 232200517#1 26429996#0 26429996#1 26429996#2 26429996#3 26429996#4 26429996#5 26429983 233179506 233179507 478381180#0 182649299#0 182649299#1 182649299#2 182649299#3 182649299#4 182649299#5 182649299#6 182649299#7 305890584#0 305890584#1 305890584#2 305890584#3 305890584#4 305890584#5 305890584#6 305890584#7 -305869126#34 -305869126#33 -305869126#32 -305869126#31 -305869126#30 -305869126#29 -305869126#28 -305869126#27 -305869126#26 -305869126#25 -305869126#24 -305869126#23 -305869126#22 -305869126#21 -305869126#20 -305869126#19 -305869126#18 -305869126#17 -305869126#16 -305869126#15 -305869126#14 -305869126#13 -305869126#12 -305869126#11 -305869126#10 -305869126#9 -305869126#8 -305869126#7 -305869126#6 -305869126#5 -305869126#4 -305869126#3 -305869126#2 -305869126#1 -305869126#0 -460907330 -460907331#5 305746824#0 305746824#1 305906381#0 305906381#1 305906381#2 -305739369 252560641#29 252560641#30 252560641#31 252560641#32 252560641#33 -657897897#1 -657897897#0 -252608817#3 -252608817#2 -252608817#1 -252608817#0 -252608816 -252560643#14 -252560643#13 -252560643#12 -252560643#11 -252560643#10 -252560643#9 -252560643#8 -252560643#7 305786730#0 305786730#1 305786730#2 305786730#3 305786730#4 305786730#5 305786730#6 305733419#0 305863008"/>
    </vehicle>
    <vehicle id="9" depart="4.50">
        <route edges="338070124 338070159#1 338070131#1 543471911#1 543471911#2 543471911#3 543471911#4 543471912#0 543471912#1 543471912#2 543471912#3 543471912#4 543471912#5 543471912#6 543471912#7 543471912#8 543471912#9 543471912#10 543471912#11 543471912#12 543471912#13 543471912#14 543471912#15 461139683#0 543286219 449532767#2 449532767#3 449532767#4 449532767#5 449532767#6 449532767#7 449532767#8 449532767#9 449532767#10 449532767#11 233179508 233179505 26430081 461139688#0 461139688#1 461139688#2 461139688#3 461139688#4 23035436#0 23035436#1 23035436#2 23035436#3 23035436#4 23035436#5 23035436#6 23035436#7 23035436#8 23035436#9 23035436#10 23035436#11 336129131#0 -331636528#0 229013927#0 229013927#1 229013927#2 229013927#3 229013927#4 229013927#5 229013927#6 229013927#7 229013927#8 229013927#9 229013927#10 229013927#11 229013927#12 229013927#13 229013927#14 229013927#15 -229022006#3 -229022006#2"/>
    </vehicle>
    <vehicle id="10" depart="5.00">
        <route edges="338066227#1 646378479#1 646378479#2 646378479#3 544284710#10 544284710#11 544284710#12 544284710#13 544284710#14 544284710#15 544284710#16 544284710#17 544284710#18 544284710#19 -336098972#20 -336098972#19 -336098972#18 -336098972#17 -336098972#16 -336098972#15 -336098972#14 -336098972#13 467420095#15 467420095#16 467420095#17 467420095#18 467420095#19 467420094#0 543471911#2 543471911#3 543471911#4 543471912#0 543471912#1 543471912#2 543471912#3 543471912#4 543471912#5 543471912#6 543471912#7 543471912#8 543471912#9 543471912#10 543471912#11 543471912#12 543471912#13 543471912#14 543471912#15 461139683#0 26430140#0 26430140#1 26430140#2 26430140#3 26430140#4 26430140#5 26430140#6 26430140#7 26430140#8 26430140#9 26430140#10 26430140#11 26430140#12 26430140#13 190291511#2 190291511#3 306525606#0"/>
    </vehicle>
    <vehicle id="11" depart="5.50">
        <route edges="-338382553#1 338382553#1 338382553#2 338382553#3 336134944#0 328022790#1 328022790#2 252608037 252608806#0 252608806#1 481197247 481197249 -586350060 232200540#0 232200540#1 232200540#2 26535244#0 26535244#1 26535244#2 26535244#3 26535244#4 -305895360#2 -305895360#1 -305895360#0 416728897#5 305895352#8 -305895309#10 -305895309#9 -305895309#8 -305895309#7 -305895309#6 -305895309#5 -305895309#4 -305895309#3 -305895309#2 -305895309#1 -305895309#0 305869127 305869126#0 305869126#1 305869126#2 305869126#3 305869126#4 305869126#5 305869126#6 305869126#7 305869126#8 305869126#9 305869126#10 305869126#11 305869126#12 305869126#13 305869126#14 305869126#15 -652826115 -305905902#7 -305905902#6 -305905902#5 305926688#0 -305905898#3 -305905898#2 -305905898#1 -305905898#0"/>
    </vehicle>
    <vehicle id="12" depart="6.00">
        <route edges="665294142#1 -360498388#5 -360498388#4 -360498388#3 -360498388#2 -360498388#1 -360498388#0 -232200510#12 -232200510#11 -232200510#10 -232200510#9 -232200510#8 -232200510#7 -232200510#6 -232200510#5 -232200510#4 -232200510#3 -232200510#2 -232200510#1 -232200510#0 232200517#0 232200517#1 26429996#0 26429996#1 26429996#2 26429996#3 26429996#4 26429996#5 1164561570 26430079#4 26430079#5 26430079#6 26430079#7 26430079#8 26430079#9 26430079#10 26430079#11 26430079#12 187964627#0 187964627#1 187964627#2 187964627#3 187964627#4 187964627#5 187964627#6 187964627#7 187964627#8 306525607#0 306525607#1 233180605 190291565 306525610#0 306525610#1 306525610#2 306525610#3 306525610#4 252608811 252608810 667143880#0 667143880#1 667143880#2 667143880#3 667143880#4 667143880#5 667143880#6 667143880#7 667143880#8 667143880#9 667143880#10 667143880#11 667143880#12 667143880#13 667143880#14 667143880#15 667143880#16 667143880#17 478381182 478381183#0 478381183#1 478381183#2 190291535#0 190291535#1 190291535#2 190291535#3 190291535#4 190291535#5 1164297238#0 1164297238#1 1164297238#2 1164297238#3 1164297241#1 414864393#0 414864393#1 414864393#2 414864393#3 414864393#4 414864393#5 414864393#6 232200524#0 305808205#11 305808205#12 305808205#13 305808205#14 305808205#15 305808205#16 305808205#17 305808205#18 -338361399 -702707870#0 -702707869#1 -702707869#0 338385227#0 -338361410"/>
    </vehicle>
    <vehicle id="13" depart="6.50">
        <route edges="-305860098#3 305860098#3 305878056#0 305878056#1 305878056#2 305878056#3 305878056#4 305926570#0 305926570#1 305926570#2 305926569#0 305926569#1 -305860816#3"/>
    </vehicle>
    <vehicle id="14" depart="7.00">
        <route edges="338382654#2 338382654#3 338382654#4 -338382649#0 426141202#33 426141202#34 426141202#35 426141202#36 467420100#1 426141203#1 426141203#2 426141203#3 426141203#4 426141203#5 426141203#6 426141203#7 426141203#8 426141203#9 -477508538#2 -477508538#1 -477508538#0 -424698794#3 -424698794#2 -424698794#1 -424698794#0 -305876766#12 -305876766#11 -305876766#10 -305876766#9 -305876766#8 -305876766#7 305876758#0"/>
    </vehicle>
    <vehicle id="15" depart="7.50">
        <route edges="338070067#3 338070067#4 338070067#5 338070067#6 338070067#7 338070067#8 338070067#9 338070067#10 338070067#11 338070067#12 338070067#13 338070067#14 338070067#15 338070067#16 26430155#1 26430155#2 26430155#3 26430155#4 26430155#5 26430155#6 26430155#7 26430155#8 26464278#0 26464278#1 26464278#2 26464278#3 26464278#4 26464278#5 26464278#6 26464278#7 336098758#1"/>
    </vehicle>
    <vehicle id="16" depart="8.00">
        <route edges="305740958#2 -305740958#2 -305740958#1 -305740958#0 305740962#6 -460907332#4 -460907332#3 -460907332#2 -460907332#1 -460907332#0 305869462#5 305869462#6 305869462#7 460907331#0 460907331#1 460907331#2 460907331#3 460907331#4 460907331#5 460907330 305869126#0 585685046 305895309#0 305895309#1 305895309#2 305895309#3 305895309#4 305895309#5 305895309#6 305895309#7 305895309#8 305895309#9 305895309#10 -305895352#8 -305895352#7 -305895352#6 -305895352#5 -305895352#4 -305895352#3 -305895352#2 -305895352#1 -305895352#0 305872795#2 232200516#0 232200516#1 232200516#2 586350059#0 586350059#1 586350059#2 586350059#3 586350059#4 586350060 328023840#0 328023840#1 328023840#2 252608806#1 481197246#0 481197246#1 481197246#2 252608809 232200543#0 232200543#1 232200543#2 232200543#3 232200543#4 232200543#5 232200543#6 232200543#7 232200543#8 232200543#9 232200513#0 232200513#1 232200513#2 467420102#1 467420102#2 467420102#3 467420102#4 467420102#5 -305925294#5 -305925294#4 -305925294#3 668216070 668216069#2 668424551#1"/>
    </vehicle>
    <vehicle id="17" depart="8.50">
        <route edges="-481050418#0 481050418#0 338348205#1 338348205#2 338348205#3 338348205#4 338348205#5 331634762#0 331634762#1 331634762#2 331634762#3 331634762#4 331634762#5 331634762#6 331634762#7 331634762#8 426141202#0 232200517#1 26429996#0 26429996#1 26429996#2 26429996#3 26429996#4 26429996#5 1164561570 26430079#4 26430079#5 26430079#6 26430079#7 26430079#8 26430079#9 26430079#10 26430079#11 26430079#12 187964627#0 187964627#1 187964627#2 187964627#3 187964627#4 187964627#5 187964627#6 187964627#7 187964627#8 306525607#0 306525607#1 233180605 190291565 306525610#0 306525610#1 306525610#2 306525610#3 306525610#4 252608811 252608810 667143880#0 667143880#1 667143880#2 667143880#3 667143880#4 667143880#5 667143880#6 667143880#7 667143880#8 667143880#9 667143880#10 667143880#11 667143880#12 667143880#13 667143880#14 667143880#15 667143880#16 305923201#0 305923201#1 305923201#2 305923201#3 478381192 478381191#9 305785968#0 305785968#1 305785968#2 305785968#3 305785968#4 338349922#1 -659856446#2 -659856446#1 -659856446#0 -305785964#2 -305785964#1 -305785964#0 -305751440#6 305785961#0"/>
    </vehicle>
    <vehicle id="18" depart="9.00">
        <route edges="338349960#0 -338349960#0 338349948#1 338349948#2 338349948#3 338349948#4 338349948#5 338349948#6 336143974#0 336143974#1 336143974#2 232200525#0 232200525#1 232200525#2 232200525#3 232200525#4 232200525#5 232200525#6 232200535#1 232200535#2 232200535#3 232200535#4 232200535#5 232200535#6 667214693#0 667214693#1 667214693#2 667214693#3 667214693#4 232200537#0 232200537#1 232200522#6 232200522#7 232200522#8 232200522#9 232200522#10 252608808 252608807#0 252608807#1 437414904#0 437414904#1 437414904#2 437414904#3 481197249 -586350060 232200540#0 232200540#1 232200540#2 26535244#0 26535244#1 26535244#2 26535244#3 26535244#4 26535244#5 305872795#5 305872795#6 305872795#7 305872795#8 305872795#9 305872795#10 305872795#11 306525608#0 306525608#1 306525608#2 306525608#3 306525608#4 306525608#5 -416728920#2 -416728920#1 -416728920#0 305882788#1 -305890224#1 -305890224#0 305889770#14"/>
    </vehicle>
    <vehicle id="19" depart="9.50">
        <route edges="360470002#3 334656930#0 334656930#1 334656930#2 334656930#3 682602121#2 -334656929#0 -334656217#15 -334656217#14 -334656217#13 -334656217#12 -334656217#11 -334656217#10 -334656217#9 -334656217#8 -334656217#7 -334656217#6 -337795654#4 -337795654#3 -337795654#2 -337795654#1 -337795654#0 -334656217#0 337873206#12 337873206#13 337873206#14 337873206#15 337873206#16 337873206#17 337873206#18 337873206#19 337873206#20 337873206#21 480990377 252608041#0 252608041#1 252608041#2 252608041#3 252608041#4 252608041#5 252608041#6 252608041#7 252608041#8 252608041#9 252608041#10 252608041#11 252608041#12 252608041#13 252608041#14 1134942191#0 1134942191#1 1134942191#2 1134942193#2 50556837#0 50556837#1 50556837#2 50556837#3 50556837#4 50556837#5 50556837#6 520361032 520361035 232200531#0 232200531#1 232200531#2 232200531#3 232200531#4 232200531#5 232200531#6 232200531#7 232200531#8 232200531#9 232200531#10 232200531#11 232200531#12 232200531#13 232200531#14 232200531#15 -252560644#0 -467420102#11 -467420102#10 -305925296#19 -305925296#18 -305925296#17 -305925296#16 -305925296#15 -305925296#14 -305925296#13 -305925296#12 -305925296#11 -305925296#10 -305925296#9 -305925296#8 -305925296#7 -305925296#6 -305925296#5 -305925296#4 -305925296#3 -667681745#13 -667681745#12 -667681745#11 -667681745#10 -667681745#9 -667681745#8 -667681745#7 -667681745#6 -667681745#5 -667681745#4 -667681745#3 -667681745#2 -667681745#1 -667681745#0 -252560647#1 -252560647#0 305923201#1 305923201#2 305923201#3 478381192 478381191#9 478381191#10 478381191#11 478381191#12 478381185#1 478381185#2 -305856021#6 -305856021#5 -305856021#4 -305856021#3 -305856021#2 -305856021#1 -305856021#0 -305856027#2 305856027#2"/>
    </vehicle>
    <vehicle id="20" depart="10.00">
        <route edges="305929139#0 -305929139#0 426141202#19 426141202#20 426141202#21 426141202#22 426141202#23 426141202#24 426141202#25 426141202#26 426141202#27 426141202#28 426141202#29 426141202#30 426141202#31 426141202#32 426141202#33 426141202#34 426141202#35 426141202#36 426141202#37 252608806#0 252608806#1 481197247 481197249 -586350060 232200540#0 232200540#1 232200540#2 26535244#0 26535244#1 26535244#2 26535244#3 26535244#4 -305895360#2 -305895360#1 -305895360#0 416728897#5 305895352#8 305895306#0 305895306#1 305895306#2 305895306#3 305895306#4 305895306#5 305895306#6 305895306#7 -233180607#4 -233180607#3 -233180607#2 -233180607#1 -305876765#0 -305743265#11 -305743265#10 -305743265#9"/>
    </vehicle>
    <vehicle id="21" depart="10.50">
        <route edges="-331960843#8 331960843#8 331960843#9 35173096#0 337873206#18 337873206#19 337873206#20 337873206#21 480990379#0 480990379#1 26433840#0 26433840#1 26433840#2 26433840#3 26433840#4 26433840#5 26433840#6 26433840#7 26433840#8 26433840#9 26433840#10 26433840#11 26433840#12 26433840#13 26433840#14 26433840#15 26433840#16 26433840#17 26433840#18 -336134958#7 -336134958#6 -336134958#5 -336134958#4 -336134958#3 -336134958#2 -336134958#1 -336134958#0 -336134956#5 -336134956#4 -336134956#3 -336134956#2"/>
    </vehicle>
    <vehicle id="22" depart="11.00">
        <route edges="-305807263#2 -305807263#1 -305807263#0 305733403#3 305733403#4 -305729278#6 -305729278#5 -305729278#4 -305729278#3 -305729278#2 -305729278#1 -305729278#0 252560643#11 252560643#12 252560643#13 252560643#14 252608816 252608817#0 252608817#1 252608817#2 252608817#3 657897897#0 657897897#1 -252560641#33 -252560641#32 -252560641#31 -252560641#30 -252560641#29 305739369 -305906381#2 -305906381#1 -305906381#0 -305746824#1 -305746824#0 460907331#5 460907330 305869126#0 305869126#1 305869126#2 305869126#3 305869126#4 305869126#5 305869126#6 305869126#7 305869126#8 305869126#9 305869126#10 305869126#11 305869126#12 305869126#13 305869126#14 305869126#15 305869126#16 305869126#17 305869126#18 305869126#19 305869126#20 305869126#21 305869126#22 305869126#23 305869126#24 305869126#25 305869126#26 305869126#27 305869126#28 305869126#29 305869126#30 305869126#31 305869126#32 305869126#33 305869126#34 305869126#35 305857491#0 305857491#1 305857491#2 305857491#3 305857491#4 305857491#5 305857491#6 305857491#7 305857491#8 305857491#9 305857491#10 -449532769 449532767#4 449532767#5 449532767#6 449532767#7 449532767#8 449532767#9 449532767#10 449532767#11 233179508 233179505 26430081 461139688#0 461139688#1 461139688#2 461139688#3 461139688#4 23035436#0 23035436#1 23035436#2 23035436#3 23035436#4 23035436#5 23035436#6 23035436#7 23035436#8 23035436#9 23035436#10 23035436#11 23035436#12 23035436#13 23035436#14 23035436#15 23035436#16 -481050418#1 -481050418#0 -332536813#9 -332536812#16 -332536812#15 -332536812#14 -332536812#13 -332536812#12 -332536812#11 -332536812#10 -332536812#9 -332536812#8 -332536812#7 -332536812#6 -332536812#5 -332536812#4 -332536812#3 -332536812#2 -332536812#1 -332536812#0 337873206#4 334657052#0 334657052#1 334657052#2 334657052#3 334657052#4 334657052#5 334657052#6 334657052#7 334657052#8 334657052#9 334657052#10 334657052#11 334657052#12 334657052#13 334657052#14 334657052#15 334657052#16 334656653#6 -334656653#6"/>
    </vehicle>
    <vehicle id="23" depart="11.50">
        <route edges="-305863510#0 305856021#2 305856021#3 305856021#4 305856021#5 305856021#6 478381185#3 478381185#4 478381185#5 478381185#6 478381185#7 478381185#8 478381185#9 252608812 252608813#0 252608813#1 252608813#2 252608813#3 306525609 233180604 190291510 306525608#0 306525608#1 306525608#2 306525608#3 306525608#4 306525608#5 306525608#6 26430067#0 26430067#1 543279486#0 543279486#1 543279486#2 543279486#3 543279486#4 543279486#5 1013749088#0 1013749088#1 26430081 461139688#0 461139688#1 461139688#2 461139688#3 26430117#0 26430117#1 26430117#2 232200510#0 232200510#1 232200510#2 232200510#3 -336134806#3 -336134869#3"/>
    </vehicle>
    <vehicle id="24" depart="12.00">
        <route edges="305895339#2 305895339#3 305882781#0 305895372#2 305895372#3 305895372#4 305895372#5 416728897#0 416728897#1 416728897#2 416728897#3 416728897#4 416728897#5 -305895352#7 -305895352#6 -305895352#5 -305895352#4 -305895352#3 -305895352#2 -305895352#1 -305895352#0 305872795#2 586265549 233180606#4 233180606#5 233180606#6 306525610#0 306525610#1 306525610#2 306525610#3 306525610#4 252608811 252608810 667143880#0 667143880#1 667143880#2 667143880#3 667143880#4 667143880#5 667143880#6 667143880#7 305915494#0 305915494#1 305915494#2 -372941145#5"/>
    </vehicle>
    <vehicle id="25" depart="12.50">
        <route edges="-424698791#1 424698791#1 424698791#2 424698791#3 424698791#4 424698788#0 424698788#1 424698788#2 424698788#3 424698788#4 424698788#5 424698788#6 424698788#7 424698788#8 424698788#9 424698788#10 424698788#11 424698788#12 424698788#13 424698788#14 424698788#15 424698788#16 424698788#17 26429996#5 26429983 233179506 233179507 478381180#0 478381180#1 478381180#2 478381180#3 478381180#4 478381180#5 478381180#6 478381180#7 478381180#8 478381180#9 478381180#10 478381180#11 449532768#0 449532768#1 449532768#2 449532768#3 449532768#4 449532768#5 1164561563#0 1164561563#1 1164561565 543318202#0 543318202#1 543318202#2 543318202#3 543318202#4 543318202#5 543318202#6 543318202#7 543318202#8 543318202#9 -477508527#20 -477508527#19 -477508527#18 -477508527#17 -477508527#16 -477508527#15 -477508527#14 -477508527#13 -477508527#12 -477508527#11 -477508527#10 -477508527#9 -477508527#8 -477508527#7 -477508527#6 -477508527#5 -336098823 -320565359#5 -320565359#4 320564876#0 -320566174#6"/>
    </vehicle>
    <vehicle id="26" depart="13.00">
        <route edges="-336125198#0 332536812#6 332536812#7 332536812#8 332536812#9 332536812#10 332536812#11 332536812#12 332536812#13 332536812#14 332536812#15 332536812#16 332536813#9 481050418#0 338348205#1 338348205#2 338348205#3 338348205#4 338348205#5 331634762#0 331634762#1 331634762#2 331634762#3 331634762#4 331634762#5 331634762#6 331634762#7 331634762#8 426141202#0 232200517#1 26429996#0 26429996#1 26429996#2 26429996#3 26429996#4 26429996#5 26429983 233179506 233179507 478381180#0 182649299#0 182649299#1 182649299#2 182649299#3 182649299#4 182649299#5 182649299#6 182649299#7 305890584#0 305890584#1 305890584#2 305890584#3 305890584#4 305890584#5 305890584#6 305890584#7 -305869126#34 -305869126#33 -305869126#32 -305869126#31 -305869126#30 -305869126#29 -305869126#28 -305869126#27 -305869126#26 -305869126#25 -305869126#24 -305869126#23 -305869126#22 -305869126#21 -305869126#20 -305869126#19 -305869126#18 -305869126#17 -305869126#16 -305869126#15 -305869126#14 -305869126#13 -305869126#12 -305869126#11 -305869126#10 -305869126#9 -305869126#8 -305869126#7 -305869126#6 -305869126#5 -305869126#4 -305869126#3 -305869126#2 -305869126#1 585685046 460907329 305746815#0 305746815#1 305746815#2 305746815#3 305746815#4 305746815#5 305746815#6 305746815#7 305746815#8 305876233#0 305876233#1 -305876225#2 -305876225#1 656722564#0"/>
    </vehicle>
    <vehicle id="27" depart="13.50">
        <route edges="305901972 -305901969#4 -305901969#3 -305901969#2 -305901969#1 233180603#1 233180603#2 233180603#3 233180606#0 233180606#1 233180606#2 26535244#3 26535244#4 -305895360#2 -305895360#1 -305895360#0 416728897#5 305895352#8 -305895309#10 -305895309#9 -305895309#8 -305895309#7 -305895309#6 -305895309#5 -305895309#4 -305895309#3 -305895309#2 -305895309#1 -305895309#0 305869127 -460907330 -460907331#5 305746824#0 305746824#1 305906381#0 305906381#1 305906381#2 -305878716#5 -305878716#4 305878716#4"/>
    </vehicle>
    <vehicle id="28" depart="14.00">
        <route edges="-305916926#2 -305916926#1 -305916926#0 478381196#2 305916924#0 305916924#1 305916924#2 305916924#3 305916924#4 305923201#3 478381192 478381191#9 478381191#10 478381191#11 478381191#12 478381185#1 478381185#2 478381185#3 478381185#4 478381185#5 478381185#6 478381185#7 478381185#8 478381185#9 252608812 252608813#0 252608813#1 252608813#2 252608813#3 306525609 233180604 190291510 306525608#0 -305895339#7 -305895339#6 -305895339#5 -182649299#28 -182649299#27 -182649299#26 -182649299#25 -182649299#24 -182649299#23 -182649299#22 -182649299#21 -182649299#20 -182649299#19 -182649299#18 -182649299#17 -182649299#16 -182649299#15 -182649299#14 -182649299#13 -182649299#12 -182649299#11 -182649299#10 -182649299#9 -182649299#8 -182649299#7 -182649299#6 -182649299#5 -182649299#4 -182649299#3 -182649299#2 -182649299#1 -182649299#0 478381180#1 478381180#2 478381180#3 478381180#4 478381180#5 478381180#6 478381180#7 478381180#8 478381180#9 478381180#10 478381180#11 449532768#0 449532768#1 449532768#2 449532768#3 449532768#4 449532768#5 1164561563#0 1164561563#1 1164561565 305805340#2 305805340#3 336098760#0 1182466606#1 336098751#0"/>
    </vehicle>
    <vehicle id="29" depart="14.50">
        <route edges="-305915479#1 305915479#1 667681745#10 667681745#11 667681745#12 667681745#13 305925296#3 305925296#4 305925296#5 305925296#6 305925296#7 305925296#8 305925296#9 305925296#10 305925296#11 305925296#12 305925296#13 305925296#14 305925296#15 305925296#16 305925296#17 305925296#18 305925296#19 467420102#10 467420102#11 232200525#1 232200525#2 232200525#3 232200525#4 232200525#5 232200525#6 232200525#7 232200525#8 232200525#9 232200525#10 232200525#11 232200525#12 232200525#13 232200525#14 232200525#15 26433662 520361034 520361033#0 520361033#1 520361033#2 520361033#3 520361033#4 520361033#5 520361033#6 520361033#7 1134942193#0 1134942190#0 1134942190#1 -252608041#14 -252608041#13 -252608041#12 -252608041#11 -252608041#10 -252608041#9 -252608041#8 -252608041#7 -252608041#6 -252608041#5 -252608041#4 -252608041#3 -252608041#2 -252608041#1 -252608041#0 26433534 1265499557 480990378#0 480990378#1 -35173097#11 -35173097#10 -35173097#9 -35173097#8 328034633#0 328034633#1 328034633#2 328034633#3 328034633#4 328034633#5 328034633#6 328034633#7 328034633#8 -512798092#3 -512798092#2 512803083 512803084#1 -512803084#1"/>
    </vehicle>
    <vehicle id="30" depart="15.00">