<additional>
  <tlLogic id="2590615761" type="static" programID="1" offset="0">
    <phase duration="31" state="GGggrrrrGGggrrrr"/>
    <phase duration="5"  state="yyggrrrryyggrrrr"/>
    <phase duration="6"  state="rrGGrrrrrrGGrrrr"/>
    <phase duration="5"  state="rryyrrrrrryyrrrr"/>
    <phase duration="31" state="rrrrGGggrrrrGGgg"/>
    <phase duration="5"  state="rrrryyggrrrryygg"/>
    <phase duration="6"  state="rrrrrrGGrrrrrrGG"/>
    <phase duration="5"  state="rrrrrryyrrrrrryy"/>
  </tlLogic>
  <tlLogic id="289651584" type="static" programID="1" offset="0">
    <phase duration="31" state="GGggrrrrGGggrrrr"/>
    <phase duration="5"  state="yyggrrrryyggrrrr"/>
    <phase duration="6"  state="rrGGrrrrrrGGrrrr"/>
    <phase duration="5"  state="rryyrrrrrryyrrrr"/>
    <phase duration="31" state="rrrrGGggrrrrGGgg"/>
    <phase duration="5"  state="rrrryyggrrrryygg"/>
    <phase duration="6"  state="rrrrrrGGrrrrrrGG"/>
    <phase duration="5"  state="rrrrrryyrrrrrryy"/>
  </tlLogic>
  <tlLogic id="5071908193" type="static" programID="1" offset="0">
    <phase state="Grrrrrrrrrrr" duration="30" minDur="30" maxDur="30"/>
    <phase state="yrrrrrrrrrrr" duration="5" minDur="5" maxDur="5"/>
    <phase state="rrrrrrrrrrrG" duration="30" minDur="30" maxDur="30"/>
    <phase state="rrrrrrrrrrry" duration="5" minDur="5" maxDur="5"/>
   </tlLogic>
   <tlLogic id="10738611047" type="static" programID="1" offset="0">
    <phase state="Grrrrrrrrrrr" duration="30" minDur="30" maxDur="30"/>
    <phase state="yrrrrrrrrrrr" duration="5" minDur="5" maxDur="5"/>
    <phase state="rrrrrrrrrrrG" duration="30" minDur="30" maxDur="30"/>
    <phase state="rrrrrrrrrrry" duration="5" minDur="5" maxDur="5"/>
  </tlLogic>
  <tlLogic id="289650131" type="static" programID="1" offset="0">
    <phase state="Grrrrrrrrrrr" duration="30" minDur="30" maxDur="30"/>
    <phase state="yrrrrrrrrrrr" duration="5" minDur="5" maxDur="5"/>
    <phase state="rrrrrrrrrrrG" duration="30" minDur="30" maxDur="30"/>
    <phase state="rrrrrrrrrrry" duration="5" minDur="5" maxDur="5"/>
  </tlLogic>
  <tlLogic id="289651234" type="static" programID="1" offset="0">
    <phase state="Grrrrrrrrrrr" duration="30" minDur="30" maxDur="30"/>
    <phase state="yrrrrrrrrrrr" duration="5" minDur="5" maxDur="5"/>
    <phase state="rrrrrrrrrrrG" duration="30" minDur="30" maxDur="30"/>
    <phase state="rrrrrrrrrrry" duration="5" minDur="5" maxDur="5"/>
  </tlLogic>
  <tlLogic id="289651235" type="static" programID="1" offset="0">
    <phase state="Grrrrrrrrrrr" duration="30" minDur="30" maxDur="30"/>
    <phase state="yrrrrrrrrrrr" duration="5" minDur="5" maxDur="5"/>
    <phase state="rrrrrrrrrrrG" duration="30" minDur="30" maxDur="30"/>
    <phase state="rrrrrrrrrrry" duration="5" minDur="5" maxDur="5"/>
  </tlLogic>
  <tlLogic id="10738611049" type="static" programID="1" offset="0">
    <phase state="Grrrrrrrrrrr" duration="30" minDur="30" maxDur="30"/>
    <phase state="yrrrrrrrrrrr" duration="5" minDur="5" maxDur="5"/>
    <phase state="rrrrrrrrrrrG" duration="30" minDur="30" maxDur="30"/>
    <phase state="rrrrrrrrrrry" duration="5" minDur="5" maxDur="5"/>
  </tlLogic>
  <tlLogic id="2008926497" type="static" programID="1" offset="0">
    <phase state="Grrrrrrrrrrr" duration="30" minDur="30" maxDur="30"/>
    <phase state="yrrrrrrrrrrr" duration="5" minDur="5" maxDur="5"/>
    <phase state="rrrrrrrrrrrG" duration="30" minDur="30" maxDur="30"/>
    <phase state="rrrrrrrrrrry" duration="5" minDur="5" maxDur="5"/>
  </tlLogic>
  <tlLogic id="10738644427" type="static" programID="1" offset="0">
    <phase state="Grrrrrrrrrrr" duration="30" minDur="30" maxDur="30"/>
    <phase state="yrrrrrrrrrrr" duration="5" minDur="5" maxDur="5"/>
    <phase state="rrrrrrrrrrrG" duration="30" minDur="30" maxDur="30"/>
    <phase state="rrrrrrrrrrry" duration="5" minDur="5" maxDur="5"/>
  </tlLogic>
  <tlLogic id="2415407141" type="static" programID="1" offset="0">
    <phase state="Grrrrrrrrrrr" duration="30" minDur="30" maxDur="30"/>
    <phase state="yrrrrrrrrrrr" duration="5" minDur="5" maxDur="5"/>
    <phase state="rrrrrrrrrrrG" duration="30" minDur="30" maxDur="30"/>
    <phase state="rrrrrrrrrrry" duration="5" minDur="5" maxDur="5"/>
  </tlLogic>
  <tlLogic id="5601790651" type="static" programID="1" offset="0">
    <phase state="Grrrrrrrrrrr" duration="30" minDur="30" maxDur="30"/>
    <phase state="yrrrrrrrrrrr" duration="5" minDur="5" maxDur="5"/>
    <phase state="rrrrrrrrrrrG" duration="30" minDur="30" maxDur="30"/>
    <phase state="rrrrrrrrrrry" duration="5" minDur="5" maxDur="5"/>
  </tlLogic>
  <tlLogic id="10738663603" type="static" programID="1" offset="0">
    <phase state="Grrrrrrrrrrr" duration="30" minDur="30" maxDur="30"/>
    <phase state="yrrrrrrrrrrr" duration="5" minDur="5" maxDur="5"/>
    <phase state="rrrrrrrrrrrG" duration="30" minDur="30" maxDur="30"/>
    <phase state="rrrrrrrrrrry" duration="5" minDur="5" maxDur="5"/>
  </tlLogic>
  <tlLogic id="10738683805" type="static" programID="1" offset="0">
    <phase state="Grrrrrrrrrrr" duration="30" minDur="30" maxDur="30"/>
    <phase state="yrrrrrrrrrrr" duration="5" minDur="5" maxDur="5"/>
    <phase state="rrrrrrrrrrrG" duration="30" minDur="30" maxDur="30"/>
    <phase state="rrrrrrrrrrry" duration="5" minDur="5" maxDur="5"/>
  </tlLogic>
  <tlLogic id="6787483870" type="static" programID="1" offset="0">
    <phase state="Grrrrrrrrrrr" duration="30" minDur="30" maxDur="30"/>
    <phase state="yrrrrrrrrrrr" duration="5" minDur="5" maxDur="5"/>
    <phase state="rrrrrrrrrrrG" duration="30" minDur="30" maxDur="30"/>
    <phase state="rrrrrrrrrrry" duration="5" minDur="5" maxDur="5"/>
  </tlLogic>
  <tlLogic id="2889203897" type="static" programID="1" offset="0">
    <phase state="Grrrrrrrrrrr" duration="30" minDur="30" maxDur="30"/>
    <phase state="yrrrrrrrrrrr" duration="5" minDur="5" maxDur="5"/>
    <phase state="rrrrrrrrrrrG" duration="30" minDur="30" maxDur="30"/>
    <phase state="rrrrrrrrrrry" duration="5" minDur="5" maxDur="5"/>
  </tlLogic>
  <tlLogic id="10738644431" type="static" programID="1" offset="0">
    <phase state="Grrrrrrrrrrr" duration="30" minDur="30" maxDur="30"/>
    <phase state="yrrrrrrrrrrr" duration="5" minDur="5" maxDur="5"/>
    <phase state="rrrrrrrrrrrG" duration="30" minDur="30" maxDur="30"/>
    <phase state="rrrrrrrrrrry" duration="5" minDur="5" maxDur="5"/>
  </tlLogic>
  <tlLogic id="10738611051" type="static" programID="1" offset="0">
    <phase state="Grrrrrrrrrrr" duration="30" minDur="30" maxDur="30"/>
    <phase state="yrrrrrrrrrrr" duration="5" minDur="5" maxDur="5"/>
    <phase state="rrrrrrrrrrrG" duration="30" minDur="30" maxDur="30"/>
    <phase state="rrrrrrrrrrry" duration="5" minDur="5" maxDur="5"/>
  </tlLogic>
  <tlLogic id="3105405957" type="static" programID="1" offset="0">
    <phase state="Grrrrrrrrrrr" duration="30" minDur="30" maxDur="30"/>
    <phase state="yrrrrrrrrrrr" duration="5" minDur="5" maxDur="5"/>
    <phase state="rrrrrrrrrrrG" duration="30" minDur="30" maxDur="30"/>
    <phase state="rrrrrrrrrrry" duration="5" minDur="5" maxDur="5"/>
  </tlLogic>
    <tlLogic id="5601790646" type="static" programID="1" offset="0">
    <phase state="Grrrrrrrrrrr" duration="30" minDur="30" maxDur="30"/>
    <phase state="yrrrrrrrrrrr" duration="5" minDur="5" maxDur="5"/>
    <phase state="rrrrrrrrrrrG" duration="30" minDur="30" maxDur="30"/>
    <phase state="rrrrrrrrrrry" duration="5" minDur="5" maxDur="5"/>
  </tlLogic>
  <tlLogic id="4716075358" type="static" programID="1" offset="0">
    <phase state="Grrrrrrrrrrr" duration="30" minDur="30" maxDur="30"/>
    <phase state="yrrrrrrrrrrr" duration="5" minDur="5" maxDur="5"/>
    <phase state="rrrrrrrrrrrG" duration="30" minDur="30" maxDur="30"/>
    <phase state="rrrrrrrrrrry" duration="5" minDur="5" maxDur="5"/>
  </tlLogic>
  <tlLogic id="10738644430" type="static" programID="1" offset="0">
    <phase state="Grrrrrrrrrrr" duration="30" minDur="30" maxDur="30"/>
    <phase state="yrrrrrrrrrrr" duration="5" minDur="5" maxDur="5"/>
    <phase state="rrrrrrrrrrrG" duration="30" minDur="30" maxDur="30"/>
    <phase state="rrrrrrrrrrry" duration="5" minDur="5" maxDur="5"/>
  </tlLogic>
  <tlLogic id="10738644432" type="static" programID="1" offset="0">
    <phase state="Grrrrrrrrrrr" duration="30" minDur="30" maxDur="30"/>
    <phase state="yrrrrrrrrrrr" duration="5" minDur="5" maxDur="5"/>
    <phase state="rrrrrrrrrrrG" duration="30" minDur="30" maxDur="30"/>
    <phase state="rrrrrrrrrrry" duration="5" minDur="5" maxDur="5"/>
  </tlLogic>
  <tlLogic id="10738683806" type="static" programID="1" offset="0">
    <phase state="Grrrrrrrrrrr" duration="30" minDur="30" maxDur="30"/>
    <phase state="yrrrrrrrrrrr" duration="5" minDur="5" maxDur="5"/>
    <phase state="rrrrrrrrrrrG" duration="30" minDur="30" maxDur="30"/>
    <phase state="rrrrrrrrrrry" duration="5" minDur="5" maxDur="5"/>
  </tlLogic>
  <tlLogic id="10738683808" type="static" programID="1" offset="0">
    <phase state="Grrrrrrrrrrr" duration="30" minDur="30" maxDur="30"/>
    <phase state="yrrrrrrrrrrr" duration="5" minDur="5" maxDur="5"/>
    <phase state="rrrrrrrrrrrG" duration="30" minDur="30" maxDur="30"/>
    <phase state="rrrrrrrrrrry" duration="5" minDur="5" maxDur="5"/>
  </tlLogic>
  <tlLogic id="10738611048" type="static" programID="1" offset="0">
    <phase state="Grrrrrrrrrrr" duration="30" minDur="30" maxDur="30"/>
    <phase state="yrrrrrrrrrrr" duration="5" minDur="5" maxDur="5"/>
    <phase state="rrrrrrrrrrrG" duration="30" minDur="30" maxDur="30"/>
    <phase state="rrrrrrrrrrry" duration="5" minDur="5" maxDur="5"/>
  </tlLogic>
  <tlLogic id="10738663604" type="static" programID="1" offset="0">
    <phase state="Grrrrrrrrrrr" duration="30" minDur="30" maxDur="30"/>
    <phase state="yrrrrrrrrrrr" duration="5" minDur="5" maxDur="5"/>
    <phase state="rrrrrrrrrrrG" duration="30" minDur="30" maxDur="30"/>
    <phase state="rrrrrrrrrrry" duration="5" minDur="5" maxDur="5"/>
  </tlLogic>
  <tlLogic id="10738644429" type="static" programID="1" offset="0">
    <phase state="Grrrrrrrrrrr" duration="30" minDur="30" maxDur="30"/>
    <phase state="yrrrrrrrrrrr" duration="5" minDur="5" maxDur="5"/>
    <phase state="rrrrrrrrrrrG" duration="30" minDur="30" maxDur="30"/>
    <phase state="rrrrrrrrrrry" duration="5" minDur="5" maxDur="5"/>
  </tlLogic>
  <tlLogic id="5251968524" type="static" programID="1" offset="0">
    <phase state="Grrrrrrrrrrr" duration="30" minDur="30" maxDur="30"/>
    <phase state="yrrrrrrrrrrr" duration="5" minDur="5" maxDur="5"/>
    <phase state="rrrrrrrrrrrG" duration="30" minDur="30" maxDur="30"/>
    <phase state="rrrrrrrrrrry" duration="5" minDur="5" maxDur="5"/>
  </tlLogic>
  <tlLogic id="10738683809" type="static" programID="1" offset="0">
    <phase state="Grrrrrrrrrrr" duration="30" minDur="30" maxDur="30"/>
    <phase state="yrrrrrrrrrrr" duration="5" minDur="5" maxDur="5"/>
    <phase state="rrrrrrrrrrrG" duration="30" minDur="30" maxDur="30"/>
    <phase state="rrrrrrrrrrry" duration="5" minDur="5" maxDur="5"/>
  </tlLogic>
  <tlLogic id="3451318626" type="static" programID="1" offset="0">
    <phase state="Grrrrrrrrrrr" duration="30" minDur="30" maxDur="30"/>
    <phase state="yrrrrrrrrrrr" duration="5" minDur="5" maxDur="5"/>
    <phase state="rrrrrrrrrrrG" duration="30" minDur="30" maxDur="30"/>
    <phase state="rrrrrrrrrrry" duration="5" minDur="5" maxDur="5"/>
  </tlLogic>
  <tlLogic id="10738611050" type="static" programID="1" offset="0">
    <phase state="Grrrrrrrrrrr" duration="30" minDur="30" maxDur="30"/>
    <phase state="yrrrrrrrrrrr" duration="5" minDur="5" maxDur="5"/>
    <phase state="rrrrrrrrrrrG" duration="30" minDur="30" maxDur="30"/>
    <phase state="rrrrrrrrrrry" duration="5" minDur="5" maxDur="5"/>
  </tlLogic>
  <tlLogic id="289651486" type="static" programID="1" offset="0">
    <phase state="Grrrrrrrrrrr" duration="30" minDur="30" maxDur="30"/>
    <phase state="yrrrrrrrrrrr" duration="5" minDur="5" maxDur="5"/>
    <phase state="rrrrrrrrrrrG" duration="30" minDur="30" maxDur="30"/>
    <phase state="rrrrrrrrrrry" duration="5" minDur="5" maxDur="5"/>
  </tlLogic>
  <tlLogic id="10738644428" type="static" programID="1" offset="0">
    <phase state="Grrrrrrrrrrr" duration="30" minDur="30" maxDur="30"/>
    <phase state="yrrrrrrrrrrr" duration="5" minDur="5" maxDur="5"/>
    <phase state="rrrrrrrrrrrG" duration="30" minDur="30" maxDur="30"/>
    <phase state="rrrrrrrrrrry" duration="5" minDur="5" maxDur="5"/>
  </tlLogic>
  <tlLogic id="2415315480" type="static" programID="1" offset="0">
    <phase state="Grrrrrrrrrrr" duration="30" minDur="30" maxDur="30"/>
    <phase state="yrrrrrrrrrrr" duration="5" minDur="5" maxDur="5"/>
    <phase state="rrrrrrrrrrrG" duration="30" minDur="30" maxDur="30"/>
    <phase state="rrrrrrrrrrry" duration="5" minDur="5" maxDur="5"/>
  </tlLogic>
  <tlLogic id="412552982" type="static" programID="1" offset="0">
    <phase state="Grrrrrrrrrrr" duration="30" minDur="30" maxDur="30"/>
    <phase state="yrrrrrrrrrrr" duration="5" minDur="5" maxDur="5"/>
    <phase state="rrrrrrrrrrrG" duration="30" minDur="30" maxDur="30"/>
    <phase state="rrrrrrrrrrry" duration="5" minDur="5" maxDur="5"/>
  </tlLogic>
  <tlLogic id="10738683807" type="static" programID="1" offset="0">
    <phase state="Grrrrrrrrrrr" duration="30" minDur="30" maxDur="30"/>
    <phase state="yrrrrrrrrrrr" duration="5" minDur="5" maxDur="5"/>
    <phase state="rrrrrrrrrrrG" duration="30" minDur="30" maxDur="30"/>
    <phase state="rrrrrrrrrrry" duration="5" minDur="5" maxDur="5"/>
  </tlLogic>
</additional>
