<?xml version="1.0" encoding="UTF-8"?>

<!-- generated on 2024-05-13 12:30:18.467650 by randomTrips.py UNKNOWN
<configuration>
    <net-file value="map.net.xml"/>
    <output-trip-file value="truck_trips.xml"/>
    <route-file value="truck_routes.rou.xml"/>
    <trip-attributes value="color=&quot;179,223,183&quot;"/>
    <vehicle-class value="truck"/>
    <period value="15.0"/>
</configuration>
-->

<routes xmlns:xsi="http://www.w3.org/2001/XMLSchema-instance" xsi:noNamespaceSchemaLocation="http://sumo.dlr.de/xsd/routes_file.xsd">
    <vType id="truck" vClass="truck" color="179,223,183"/>
    <trip id="0" depart="0.00" from="305895365#0" to="-26433840#14" type="truck"/>
    <trip id="1" depart="15.00" from="-336134826#2" to="-331668884#1" type="truck"/>
    <trip id="2" depart="30.00" from="336098757#0" to="305924485#1" type="truck"/>
    <trip id="3" depart="45.00" from="477508536#1" to="-305855999#0" type="truck"/>
    <trip id="4" depart="60.00" from="-659686540#6" to="-305725659#9" type="truck"/>
    <trip id="5" depart="75.00" from="-331636528#4" to="253089142#4" type="truck"/>
    <trip id="6" depart="90.00" from="-26433847#5" to="-305928045" type="truck"/>
    <trip id="7" depart="105.00" from="305905870#4" to="305768771#0" type="truck"/>
    <trip id="8" depart="120.00" from="-331636535#5" to="305863008" type="truck"/>
    <trip id="9" depart="135.00" from="338070124" to="-229022006#2" type="truck"/>
    <trip id="10" depart="150.00" from="338066227#1" to="306525606#0" type="truck"/>
    <trip id="11" depart="165.00" from="-338382553#1" to="-305905898#0" type="truck"/>
    <trip id="12" depart="180.00" from="665294142#1" to="-338361410" type="truck"/>
    <trip id="13" depart="195.00" from="-305860098#3" to="-305860816#3" type="truck"/>
    <trip id="14" depart="210.00" from="338382654#2" to="305876758#0" type="truck"/>
    <trip id="15" depart="225.00" from="338070067#3" to="336098758#1" type="truck"/>
    <trip id="16" depart="240.00" from="305740958#2" to="668424551#1" type="truck"/>
    <trip id="17" depart="255.00" from="-481050418#0" to="305785961#0" type="truck"/>
    <trip id="18" depart="270.00" from="338349960#0" to="305889770#14" type="truck"/>
    <trip id="19" depart="285.00" from="360470002#3" to="305856027#2" type="truck"/>
    <trip id="20" depart="300.00" from="305929139#0" to="-305743265#9" type="truck"/>
    <trip id="21" depart="315.00" from="-331960843#8" to="-336134956#2" type="truck"/>
    <trip id="22" depart="330.00" from="-305807263#2" to="-334656653#6" type="truck"/>
    <trip id="23" depart="345.00" from="-305863510#0" to="-336134869#3" type="truck"/>
    <trip id="24" depart="360.00" from="305895339#2" to="-372941145#5" type="truck"/>
    <trip id="25" depart="375.00" from="-424698791#1" to="-320566174#6" type="truck"/>
    <trip id="26" depart="390.00" from="-336125198#0" to="656722564#0" type="truck"/>
    <trip id="27" depart="405.00" from="305901972" to="305878716#4" type="truck"/>
    <trip id="28" depart="420.00" from="-305916926#2" to="336098751#0" type="truck"/>
    <trip id="29" depart="435.00" from="-305915479#1" to="-512803084#1" type="truck"/>
    <trip id="30" depart="450.00" from="683070711" to="305901969#0" type="truck"/>
    <trip id="31" depart="465.00" from="305777828" to="305926569#0" type="truck"/>
    <trip id="32" depart="480.00" from="338382584#1" to="336134921#4" type="truck"/>
    <trip id="33" depart="495.00" from="-332536811#3" to="-305733403#5" type="truck"/>
    <trip id="34" depart="510.00" from="-338070242#2" to="-336127653#2" type="truck"/>
    <trip id="35" depart="525.00" from="-328024581#2" to="659514193" type="truck"/>
    <trip id="36" depart="540.00" from="424698796#9" to="-338130664#3" type="truck"/>
    <trip id="37" depart="555.00" from="305908984#0" to="-557558073#3" type="truck"/>
    <trip id="38" depart="570.00" from="543785279#0" to="-683108997" type="truck"/>
    <trip id="39" depart="585.00" from="-336125164#1" to="-336098964#3" type="truck"/>
    <trip id="40" depart="600.00" from="305785966#7" to="-336125140#0" type="truck"/>
    <trip id="41" depart="615.00" from="305856025#0" to="532231190#2" type="truck"/>
    <trip id="42" depart="630.00" from="-615811565#2" to="-331636534#11" type="truck"/>
    <trip id="43" depart="645.00" from="703945751#1" to="26430221#8" type="truck"/>
    <trip id="44" depart="660.00" from="-305856040#0" to="-305746818#1" type="truck"/>
    <trip id="45" depart="675.00" from="-305874258" to="305895337#0" type="truck"/>
    <trip id="46" depart="690.00" from="336139590#1" to="-663145602#4" type="truck"/>
    <trip id="47" depart="705.00" from="-305781145#2" to="-543256274#0" type="truck"/>
    <trip id="48" depart="720.00" from="702707864" to="305740959#2" type="truck"/>
    <trip id="49" depart="735.00" from="667681746#7" to="372815018" type="truck"/>
    <trip id="50" depart="750.00" from="-252560634#9" to="332143034#0" type="truck"/>
    <trip id="51" depart="765.00" from="305923201#3" to="305749076#11" type="truck"/>
    <trip id="52" depart="780.00" from="-336125188#3" to="305901989#3" type="truck"/>
    <trip id="53" depart="795.00" from="-305874615#2" to="-666042469#1" type="truck"/>
    <trip id="54" depart="810.00" from="-668863760" to="665294140" type="truck"/>
    <trip id="55" depart="825.00" from="424698796#0" to="-336125156#0" type="truck"/>
    <trip id="56" depart="840.00" from="252560634#4" to="-305919595#4" type="truck"/>
    <trip id="57" depart="855.00" from="543767958#2" to="426141202#16" type="truck"/>
    <trip id="58" depart="870.00" from="-336143896#3" to="305899871#9" type="truck"/>
    <trip id="59" depart="885.00" from="305874621#0" to="-305905868#1" type="truck"/>
    <trip id="60" depart="900.00" from="336125144#1" to="305751426" type="truck"/>
    <trip id="61" depart="915.00" from="336134886#1" to="305741395" type="truck"/>
    <trip id="62" depart="930.00" from="-1066933365#3" to="-338349873#1" type="truck"/>
    <trip id="63" depart="945.00" from="-252608041#2" to="651949027#21" type="truck"/>
    <trip id="64" depart="960.00" from="426141203#16" to="338361400#0" type="truck"/>
    <trip id="65" depart="975.00" from="-338070079" to="-305768773#10" type="truck"/>
    <trip id="66" depart="990.00" from="426141202#4" to="663145597#1" type="truck"/>
    <trip id="67" depart="1005.00" from="-305850722#5" to="232200525#9" type="truck"/>
    <trip id="68" depart="1020.00" from="-305804704#0" to="336127669#0" type="truck"/>
    <trip id="69" depart="1035.00" from="336127618#0" to="-305884517#9" type="truck"/>
    <trip id="70" depart="1050.00" from="-713949729" to="305780075" type="truck"/>
    <trip id="71" depart="1065.00" from="-336125165#1" to="426141203#17" type="truck"/>
    <trip id="72" depart="1080.00" from="-659709045#2" to="-328033751#0" type="truck"/>
    <trip id="73" depart="1095.00" from="305743259#0" to="336098758#5" type="truck"/>
    <trip id="74" depart="1110.00" from="-305929074#1" to="-338070201#2" type="truck"/>
    <trip id="75" depart="1125.00" from="684566623" to="305915439#1" type="truck"/>
    <trip id="76" depart="1140.00" from="-666036506#1" to="305729267#1" type="truck"/>
    <trip id="77" depart="1155.00" from="-305878726#9" to="-331687054#2" type="truck"/>
    <trip id="78" depart="1170.00" from="-338361411#3" to="305862739#2" type="truck"/>
    <trip id="79" depart="1185.00" from="-332536812#8" to="-331636535#9" type="truck"/>
    <trip id="80" depart="1200.00" from="-305804711#9" to="305895364#17" type="truck"/>
    <trip id="81" depart="1215.00" from="-332536811#10" to="543761288#0" type="truck"/>
    <trip id="82" depart="1230.00" from="35173394#0" to="-305804711#7" type="truck"/>
    <trip id="83" depart="1245.00" from="-336098764#1" to="305920268#0" type="truck"/>
    <trip id="84" depart="1260.00" from="-331532195#2" to="-305889792#1" type="truck"/>
    <trip id="85" depart="1275.00" from="652171365#4" to="305808528#4" type="truck"/>
    <trip id="86" depart="1290.00" from="-702707869#1" to="336134964#4" type="truck"/>
    <trip id="87" depart="1305.00" from="338070068#0" to="-305925459#0" type="truck"/>
    <trip id="88" depart="1320.00" from="-305860818#11" to="-665856431#1" type="truck"/>
    <trip id="89" depart="1335.00" from="-659856446#1" to="-713919832#0" type="truck"/>
    <trip id="90" depart="1350.00" from="332536812#4" to="305922794#1" type="truck"/>
    <trip id="91" depart="1365.00" from="676722352#2" to="-305861380#2" type="truck"/>
    <trip id="92" depart="1380.00" from="-64923927#0" to="-338382559" type="truck"/>
    <trip id="93" depart="1395.00" from="360470002#3" to="-336098972#7" type="truck"/>
    <trip id="94" depart="1410.00" from="-305925296#15" to="-668863766#1" type="truck"/>
    <trip id="95" depart="1425.00" from="-659686540#5" to="-336134876#1" type="truck"/>
    <trip id="96" depart="1440.00" from="-336098985#0" to="64923926#2" type="truck"/>
    <trip id="97" depart="1455.00" from="-667384125#1" to="372817909" type="truck"/>
    <trip id="98" depart="1470.00" from="305756125#0" to="-305751422#0" type="truck"/>
    <trip id="99" depart="1485.00" from="713949730#2" to="338382573#3" type="truck"/>
    <trip id="100" depart="1500.00" from="667384126" to="651089888#0" type="truck"/>
    <trip id="101" depart="1515.00" from="338382667#1" to="-305915508#1" type="truck"/>
    <trip id="102" depart="1530.00" from="190291566#2" to="-331532195#14" type="truck"/>
    <trip id="103" depart="1545.00" from="-64923867#1" to="-305768775#3" type="truck"/>
    <trip id="104" depart="1560.00" from="-512780754#0" to="682692646" type="truck"/>
    <trip id="105" depart="1575.00" from="-336125172#1" to="336134963#1" type="truck"/>
    <trip id="106" depart="1590.00" from="-668871467" to="-663167134#3" type="truck"/>
    <trip id="107" depart="1605.00" from="665294144" to="702707864" type="truck"/>
    <trip id="108" depart="1620.00" from="305777034#0" to="331960464#7" type="truck"/>
    <trip id="109" depart="1635.00" from="-305905892#2" to="-336143889#1" type="truck"/>
    <trip id="110" depart="1650.00" from="667384123#0" to="305856778#1" type="truck"/>
    <trip id="111" depart="1665.00" from="305746820#0" to="336109220#0" type="truck"/>
    <trip id="112" depart="1680.00" from="-305768768#0" to="305860120#4" type="truck"/>
    <trip id="113" depart="1695.00" from="252560637#8" to="35173383#3" type="truck"/>
    <trip id="114" depart="1710.00" from="-305908971#1" to="666042466#0" type="truck"/>
    <trip id="115" depart="1725.00" from="-305807264#1" to="-305924220#3" type="truck"/>
    <trip id="116" depart="1740.00" from="305862716" to="305924215#1" type="truck"/>
    <trip id="117" depart="1755.00" from="-336098721#0" to="-305878061#2" type="truck"/>
    <trip id="118" depart="1770.00" from="477508527#18" to="-336098950#8" type="truck"/>
    <trip id="119" depart="1785.00" from="305861381" to="305889771#5" type="truck"/>
    <trip id="120" depart="1800.00" from="-659479962" to="305860120#22" type="truck"/>
    <trip id="121" depart="1815.00" from="305720546#0" to="655845983" type="truck"/>
    <trip id="122" depart="1830.00" from="-305929115#7" to="331684191#0" type="truck"/>
    <trip id="123" depart="1845.00" from="-336098777#0" to="-585685047#1" type="truck"/>
    <trip id="124" depart="1860.00" from="305919564#1" to="-336143970#1" type="truck"/>
    <trip id="125" depart="1875.00" from="-338130664#1" to="336121375#2" type="truck"/>
    <trip id="126" depart="1890.00" from="-305805110" to="-682914938" type="truck"/>
    <trip id="127" depart="1905.00" from="713919832#0" to="702707868#6" type="truck"/>
    <trip id="128" depart="1920.00" from="-305805118#1" to="-331532194#4" type="truck"/>
    <trip id="129" depart="1935.00" from="-336125172#1" to="655558244#0" type="truck"/>
    <trip id="130" depart="1950.00" from="449532767#10" to="467420093#1" type="truck"/>
    <trip id="131" depart="1965.00" from="-424698788#13" to="-305908973#0" type="truck"/>
    <trip id="132" depart="1980.00" from="338358550" to="328033368#2" type="truck"/>
    <trip id="133" depart="1995.00" from="305876758#3" to="682823301#1" type="truck"/>
    <trip id="134" depart="2010.00" from="305906388#0" to="-232200510#17" type="truck"/>
    <trip id="135" depart="2025.00" from="338130666#4" to="-336143948#0" type="truck"/>
    <trip id="136" depart="2040.00" from="305915509#1" to="658136327#5" type="truck"/>
    <trip id="137" depart="2055.00" from="-305890301#0" to="-305876762#0" type="truck"/>
    <trip id="138" depart="2070.00" from="-305869126#6" to="305785966#18" type="truck"/>
    <trip id="139" depart="2085.00" from="-336134785#0" to="305876765#1" type="truck"/>
    <trip id="140" depart="2100.00" from="331636527#3" to="-305929115#6" type="truck"/>
    <trip id="141" depart="2115.00" from="305895323" to="-336125163#1" type="truck"/>
    <trip id="142" depart="2130.00" from="229022009#0" to="543761287#0" type="truck"/>
    <trip id="143" depart="2145.00" from="338382641#1" to="-305860090" type="truck"/>
    <trip id="144" depart="2160.00" from="-659856446#1" to="-336134858#0" type="truck"/>
    <trip id="145" depart="2175.00" from="-182649299#8" to="336134874#1" type="truck"/>
    <trip id="146" depart="2190.00" from="305895352#0" to="-336125115#0" type="truck"/>
    <trip id="147" depart="2205.00" from="336098853#1" to="305785960#1" type="truck"/>
    <trip id="148" depart="2220.00" from="-665018171#0" to="-232200535#4" type="truck"/>
    <trip id="149" depart="2235.00" from="-305805339#2" to="467420106#0" type="truck"/>
    <trip id="150" depart="2250.00" from="532231190#2" to="305768773#11" type="truck"/>
    <trip id="151" depart="2265.00" from="338359542#3" to="305860115#0" type="truck"/>
    <trip id="152" depart="2280.00" from="-305898588#2" to="-305883751#7" type="truck"/>
    <trip id="153" depart="2295.00" from="-338070098#0" to="534875777#4" type="truck"/>
    <trip id="154" depart="2310.00" from="336143896#1" to="372815017#0" type="truck"/>
    <trip id="155" depart="2325.00" from="481197248#1" to="-320573802#2" type="truck"/>
    <trip id="156" depart="2340.00" from="-336098973#2" to="-305864165#4" type="truck"/>
    <trip id="157" depart="2355.00" from="336134896#3" to="477508527#15" type="truck"/>
    <trip id="158" depart="2370.00" from="-651892622" to="305889785" type="truck"/>
    <trip id="159" depart="2385.00" from="-305905890#1" to="651981620#1" type="truck"/>
    <trip id="160" depart="2400.00" from="372798966#1" to="668667305" type="truck"/>
    <trip id="161" depart="2415.00" from="338070155#0" to="467420099#3" type="truck"/>
    <trip id="162" depart="2430.00" from="-26433840#10" to="336098890#1" type="truck"/>
    <trip id="163" depart="2445.00" from="-338358396#2" to="652171365#6" type="truck"/>
    <trip id="164" depart="2460.00" from="336642853#3" to="375583918#5" type="truck"/>
    <trip id="165" depart="2475.00" from="338070155#0" to="-336127632#0" type="truck"/>
    <trip id="166" depart="2490.00" from="336134951#1" to="-305869459#1" type="truck"/>
    <trip id="167" depart="2505.00" from="414864393#20" to="372798966#2" type="truck"/>
    <trip id="168" depart="2520.00" from="-331647400#3" to="338349707#1" type="truck"/>
    <trip id="169" depart="2535.00" from="-682603217" to="-338066227#1" type="truck"/>
    <trip id="170" depart="2550.00" from="336139631#2" to="-331961119#0" type="truck"/>
    <trip id="171" depart="2565.00" from="-26430221#0" to="-305926547#0" type="truck"/>
    <trip id="172" depart="2580.00" from="-338349957#2" to="375583956#3" type="truck"/>
    <trip id="173" depart="2595.00" from="667143880#1" to="-336134884#4" type="truck"/>
    <trip id="174" depart="2610.00" from="305895371#8" to="-64923890#1" type="truck"/>
    <trip id="175" depart="2625.00" from="669055706#0" to="305749067#1" type="truck"/>
    <trip id="176" depart="2640.00" from="655602771#2" to="-305876761#1" type="truck"/>
    <trip id="177" depart="2655.00" from="667681745#4" to="-305919595#2" type="truck"/>
    <trip id="178" depart="2670.00" from="666022880#6" to="-336125183#3" type="truck"/>
    <trip id="179" depart="2685.00" from="-305869462#7" to="-666036511#2" type="truck"/>
    <trip id="180" depart="2700.00" from="332536812#0" to="-338070237#1" type="truck"/>
    <trip id="181" depart="2715.00" from="305872807#3" to="26433840#21" type="truck"/>
    <trip id="182" depart="2730.00" from="-543338323#2" to="305856021#3" type="truck"/>
    <trip id="183" depart="2745.00" from="-336109167" to="331635037#4" type="truck"/>
    <trip id="184" depart="2760.00" from="-162874582#0" to="64937030#0" type="truck"/>
    <trip id="185" depart="2775.00" from="305743250#2" to="331960840#4" type="truck"/>
    <trip id="186" depart="2790.00" from="336098860#1" to="305922772#7" type="truck"/>
    <trip id="187" depart="2805.00" from="-372816730" to="-305804708#5" type="truck"/>
    <trip id="188" depart="2820.00" from="305915514#2" to="-338350033#5" type="truck"/>
    <trip id="189" depart="2835.00" from="-338070219#1" to="338459492#1" type="truck"/>
    <trip id="190" depart="2850.00" from="331636535#4" to="-336143974#1" type="truck"/>
    <trip id="191" depart="2865.00" from="-338070131#0" to="-653362592" type="truck"/>
    <trip id="192" depart="2880.00" from="-64923926#2" to="-336139626#0" type="truck"/>
    <trip id="193" depart="2895.00" from="-305883751#8" to="-659856446#3" type="truck"/>
    <trip id="194" depart="2910.00" from="656410438" to="305924488#4" type="truck"/>
    <trip id="195" depart="2925.00" from="520361035" to="305883740" type="truck"/>
    <trip id="196" depart="2940.00" from="-336143947#2" to="305775170#0" type="truck"/>
    <trip id="197" depart="2955.00" from="-1066933365#0" to="-336134944#3" type="truck"/>
    <trip id="198" depart="2970.00" from="-665074461#1" to="305857491#1" type="truck"/>
    <trip id="199" depart="2985.00" from="305908973#0" to="-702707867#2" type="truck"/>
    <trip id="200" depart="3000.00" from="-667214693#3" to="-331532195#13" type="truck"/>
    <trip id="201" depart="3015.00" from="-703940166" to="543279494#1" type="truck"/>
    <trip id="202" depart="3030.00" from="336143889#1" to="-305916914#0" type="truck"/>
    <trip id="203" depart="3045.00" from="-305849737#7" to="305721120#1" type="truck"/>
    <trip id="204" depart="3060.00" from="305895309#2" to="-338361397#0" type="truck"/>
    <trip id="205" depart="3075.00" from="338136960#0" to="336121364#2" type="truck"/>
    <trip id="206" depart="3090.00" from="305919577#4" to="-331687054#1" type="truck"/>
    <trip id="207" depart="3105.00" from="-305928044#2" to="-26433762#5" type="truck"/>
    <trip id="208" depart="3120.00" from="-336098911#2" to="187964627#0" type="truck"/>
    <trip id="209" depart="3135.00" from="338382682#0" to="-305805114#3" type="truck"/>
    <trip id="210" depart="3150.00" from="-656410437#0" to="305895354#1" type="truck"/>
    <trip id="211" depart="3165.00" from="-305926565#1" to="305929136#2" type="truck"/>
    <trip id="212" depart="3180.00" from="232200528#4" to="-336098905#0" type="truck"/>
    <trip id="213" depart="3195.00" from="305910895" to="-229013927#15" type="truck"/>
    <trip id="214" depart="3210.00" from="336105417#2" to="336134865#1" type="truck"/>
    <trip id="215" depart="3225.00" from="-305869126#3" to="-665042883#0" type="truck"/>
    <trip id="216" depart="3240.00" from="-305919577#12" to="666019727#0" type="truck"/>
    <trip id="217" depart="3255.00" from="26433762#8" to="-305749078#4" type="truck"/>
    <trip id="218" depart="3270.00" from="-336098972#5" to="340917880#0" type="truck"/>
    <trip id="219" depart="3285.00" from="-669628037#1" to="338070067#8" type="truck"/>
    <trip id="220" depart="3300.00" from="305916924#3" to="682914938" type="truck"/>
    <trip id="221" depart="3315.00" from="305862726#1" to="665035888" type="truck"/>
    <trip id="222" depart="3330.00" from="477508534#9" to="305880130" type="truck"/>
    <trip id="223" depart="3345.00" from="331636534#5" to="253089139#0" type="truck"/>
    <trip id="224" depart="3360.00" from="338349996#2" to="305775169" type="truck"/>
    <trip id="225" depart="3375.00" from="478381201#2" to="336105407#1" type="truck"/>
    <trip id="226" depart="3390.00" from="-713919833#1" to="-336121370#1" type="truck"/>
    <trip id="227" depart="3405.00" from="-336098964#3" to="305899863#1" type="truck"/>
    <trip id="228" depart="3420.00" from="336127606" to="305733426#0" type="truck"/>
    <trip id="229" depart="3435.00" from="305889770#8" to="-336134838#0" type="truck"/>
    <trip id="230" depart="3450.00" from="-305806288#1" to="-336134938#1" type="truck"/>
    <trip id="231" depart="3465.00" from="-336134775#2" to="-338349689#0" type="truck"/>
    <trip id="232" depart="3480.00" from="305743265#10" to="-305895335#0" type="truck"/>
    <trip id="233" depart="3495.00" from="-332536816#1" to="305929115#7" type="truck"/>
    <trip id="234" depart="3510.00" from="320565111#0" to="-305785960#6" type="truck"/>
    <trip id="235" depart="3525.00" from="-651949027#10" to="305755553#1" type="truck"/>
    <trip id="236" depart="3540.00" from="-656722564#3" to="-305929138#14" type="truck"/>
    <trip id="237" depart="3555.00" from="-659506918#5" to="543471912#14" type="truck"/>
    <trip id="238" depart="3570.00" from="305856021#3" to="305929128#3" type="truck"/>
    <trip id="239" depart="3585.00" from="35173255#11" to="336134807#1" type="truck"/>
</routes>
